geometry optimzed in LAMMPS
_audit_creation_date              2020-12-01 
_audit_creation_method            'lammps2cif' 
_symmetry_space_group_name_H-M    'P1' 
_symmetry_Int_Tables_number       1 
_symmetry_cell_setting            triclinic 
loop_ 
_symmetry_equiv_pos_as_xyz 
  x,y,z 
_cell_length_a                    58.73828461 
_cell_length_b                    58.79481620430183 
_cell_length_c                    58.77127334848036 
_cell_angle_alpha                 90.0287124544836 
_cell_angle_beta                  89.92966312299744 
_cell_angle_gamma                 90.02539322471848 
loop_ 
_atom_site_label 
_atom_site_type_symbol 
_atom_site_fract_x 
_atom_site_fract_y 
_atom_site_fract_z 
_atom_site_charge 
O1          O  0.00217683  0.82571941  0.04114363    -0.89000
C2          C  0.98080133  0.79107318  0.09888959     0.87100
Mg3        Mg  0.03844606  0.83888779  0.03644437     1.58100
O4          O  0.95761001  0.84553411  0.08197892    -0.88700
O5          O  0.96597787  0.82559054  0.03170928    -0.76000
C6          C  0.04829450  0.88485793  0.13893902     0.92100
O7          O  0.03776535  0.78957608  0.06728109    -0.75800
O8          O  0.06227274  0.87427390  0.12600789    -0.83300
Mg9        Mg  0.00346774  0.78787392  0.04870772     1.58000
C10         C  0.95541421  0.89582367  0.13081844     0.92000
O11         O  0.97150422  0.78039370  0.02952679    -0.81600
H12         H  0.94759558  0.86805063  0.05780550    -0.06900
C13         C  0.00781624  0.83709355  0.12866276     0.87000
O14         O  0.03025464  0.87534930  0.04636392    -0.76100
O15         O  0.98312365  0.80068001  0.07979011    -0.88900
O16         O  0.94607006  0.87718890  0.12487678    -0.81700
C17         C  0.91677580  0.81010350  0.11225492     0.92200
C18         C  0.95751333  0.76719560  0.03911116     0.92000
Mg19       Mg  0.00109561  0.88326729  0.10601388     1.58000
O20         O  0.02758586  0.88778533  0.13348739    -0.81600
O21         O  0.97313684  0.87986422  0.07802347    -0.75900
O22         O  0.92784232  0.79983623  0.09662902    -0.81700
O23         O  0.01982921  0.78215512  0.01408718    -0.83400
O24         O  0.08133768  0.86340911  0.07252507    -0.81700
C25         C  0.95886489  0.86463031  0.07194648     0.86400
O26         O  0.02556130  0.86985134  0.08264601    -0.88900
O27         O  0.99466155  0.84993235  0.11829758    -0.89000
O28         O  0.02831830  0.83376518  0.12241819    -0.76000
Mg29       Mg  0.94912042  0.81221470  0.06558424     1.58000
O30         O  0.92342586  0.82892530  0.12037260    -0.83400
H31         H  0.99111004  0.83642462  0.01016859    -0.07100
O32         O  0.04410272  0.82584339  0.07063827    -0.88700
H33         H  0.06621996  0.80261023  0.08193983    -0.07000
H34         H  0.02597912  0.90136194  0.06867366    -0.07100
C35         C  0.05018632  0.80601538  0.07359580     0.86400
C36         C  0.98671296  0.82978194  0.02677957     0.87000
C37         C  0.02776025  0.88321535  0.06612036     0.87100
H38         H  0.00132808  0.82758897  0.14301721    -0.07100
O39         O  0.97230141  0.80208283  0.11562256    -0.76100
Mg40       Mg  0.05345253  0.84927277  0.09677218     1.58000
H41         H  0.98576401  0.77347321  0.10098710    -0.07100
C42         C  0.03556871  0.79455703  0.00601346     0.92000
O43         O  0.07508359  0.85081337  0.03683340    -0.83400
C44         C  0.08758927  0.86051696  0.05182154     0.92100
O45         O  0.94334297  0.77569496  0.05289859    -0.83300
Mg46       Mg  0.95986137  0.84030676  0.11926301     1.58200
O47         O  0.04850573  0.80564042  0.01941191    -0.81700
O48         O  0.97662449  0.89890352  0.12952404    -0.83400
O49         O  0.03968886  0.74862619  0.92746984    -0.89000
C50         C  0.09760285  0.77258156  0.96081285     0.87100
Mg51       Mg  0.03722866  0.71413888  0.91507678     1.58100
O52         O  0.08291977  0.79196495  0.90445576    -0.88700
O53         O  0.03234939  0.78462391  0.92244556    -0.76000
C54         C  0.14071056  0.69785354  0.87324720     0.92100
O55         O  0.06572176  0.71526243  0.96467661    -0.75800
O56         O  0.12688076  0.68518050  0.88426671    -0.83300
Mg57       Mg  0.04729280  0.74953546  0.96349857     1.58000
C58         C  0.13321835  0.79055629  0.85613860     0.92000
O59         O  0.02889492  0.78200355  0.96794178    -0.81600
H60         H  0.06013585  0.80045299  0.87995173    -0.06900
C61         C  0.12901338  0.74233686  0.91840291     0.87000
O62         O  0.04797478  0.72231879  0.87895006    -0.76100
O63         O  0.07908237  0.76909153  0.95038343    -0.88900
O64         O  0.12623609  0.80190036  0.87329060    -0.81700
C65         C  0.11079934  0.83530817  0.93898096     0.92200
C66         C  0.03861350  0.79595832  0.98102952     0.92000
Mg67       Mg  0.10911840  0.74603789  0.87099416     1.58000
O68         O  0.13643369  0.71862093  0.86892791    -0.81600
O69         O  0.08108911  0.77431082  0.87103558    -0.75900
O70         O  0.09497337  0.82391470  0.94839614    -0.81700
O71         O  0.01237475  0.73315851  0.96914375    -0.83400
O72         O  0.07273936  0.66767206  0.89310953    -0.81700
C73         C  0.07404119  0.78947222  0.88493317     0.86400
O74         O  0.08475246  0.72250460  0.88385064    -0.88900
O75         O  0.11945502  0.75490247  0.90438537    -0.89000
O76         O  0.12256406  0.72196596  0.92219617    -0.76000
Mg77       Mg  0.06506535  0.80234585  0.93626380     1.58000
O78         O  0.12009718  0.82881172  0.92057045    -0.83400
H79         H  0.01097481  0.75919859  0.91246756    -0.07100
O80         O  0.07075885  0.70785447  0.92889540    -0.88700
H81         H  0.08104216  0.68647703  0.95326905    -0.07000
H82         H  0.07028509  0.72346516  0.85261249    -0.07100
C83         C  0.07285235  0.70237381  0.94899009     0.86400
C84         C  0.02702714  0.76373837  0.92022104     0.87000
C85         C  0.06780655  0.72206253  0.87081094     0.87100
H86         H  0.14290287  0.74917080  0.92833905    -0.07100
O87         O  0.11470711  0.78091341  0.95018035    -0.76100
Mg88       Mg  0.09713764  0.69605354  0.90714600     1.58000
H89         H  0.09886503  0.76881215  0.97879229    -0.07100
C90         C  0.00543035  0.71633881  0.95742214     0.92000
O91         O  0.03751684  0.67844039  0.90341432    -0.83400
C92         C  0.05130771  0.66399065  0.89497107     0.92100
O93         O  0.05140739  0.81071034  0.97209170    -0.83300
Mg94       Mg  0.11990810  0.79089754  0.91133342     1.58200
O95         O  0.01975820  0.70355265  0.94749966    -0.81700
O96         O  0.13388777  0.76913952  0.85628885    -0.83400
O97         O  0.92478816  0.70714726  0.00050696    -0.89000
C98         C  0.95966766  0.65117505  0.97665109     0.87100
Mg99       Mg  0.91360954  0.71110783  0.03695354     1.58100
O100        O  0.90364919  0.66688332  0.95542654    -0.88700
O101        O  0.92265340  0.71752673  0.96466383    -0.76000
C102        C  0.86898705  0.60830314  0.04985176     0.92100
O103        O  0.96316034  0.68136552  0.03410560    -0.75800
O104        O  0.88003081  0.62123598  0.06349335    -0.83300
Mg105      Mg  0.96260238  0.70082664  0.00025466     1.58000
C106        C  0.85455179  0.61667391  0.95704714     0.92000
O107        O  0.96684571  0.72077184  0.96878327    -0.81600
H108        H  0.88037550  0.69156719  0.94915351    -0.06900
C109        C  0.91544534  0.61974649  0.00645017     0.87000
O110        O  0.87690715  0.70118788  0.03027605    -0.76100
O111        O  0.94956546  0.66988620  0.97975789    -0.88900
O112        O  0.87247244  0.62233405  0.94613951    -0.81700
C113        C  0.93767014  0.63853356  0.91277807     0.92200
C114        C  0.98074358  0.71188716  0.95515079     0.92000
Mg115      Mg  0.86909725  0.64182123  0.00243140     1.58000
O116        O  0.86558581  0.61380380  0.02916231    -0.81600
O117        O  0.87115774  0.67034486  0.97490276    -0.75900
O118        O  0.94814725  0.65441350  0.92335273    -0.81700
O119        O  0.96857673  0.73514911  0.01703077    -0.83400
O120        O  0.89215998  0.67506708  0.08270735    -0.81700
C121        C  0.88488224  0.67693081  0.95934894     0.86400
O122        O  0.88260633  0.66486247  0.02684346    -0.88900
O123        O  0.90220835  0.63026852  0.99382391    -0.89000
O124        O  0.91896389  0.62544253  0.02708494    -0.76000
Mg125      Mg  0.93644161  0.68457059  0.94641273     1.58000
O126        O  0.91992096  0.62920692  0.92087699    -0.83400
H127        H  0.91249560  0.73801548  0.99090128    -0.07100
O128        O  0.92732033  0.67708964  0.04240902    -0.88700
H129        H  0.95201825  0.66571466  0.06284147    -0.07000
H130        H  0.85095073  0.67850503  0.02822403    -0.07100
C131        C  0.94754550  0.67439031  0.04725927     0.86400
C132        C  0.91945131  0.72177336  0.98570106     0.87000
C133        C  0.86914576  0.68129831  0.02908654     0.87100
H134        H  0.92493011  0.60561367  0.99946839    -0.07100
O135        O  0.94875908  0.63424509  0.96848763    -0.76100
Mg136      Mg  0.90463293  0.65076056  0.05347865     1.58000
H137        H  0.97757964  0.64958673  0.98065185    -0.07100
C138        C  0.95754707  0.74254784  0.03404603     0.92000
O139        O  0.90380402  0.71027142  0.07309978    -0.83400
C140        C  0.89563241  0.69611505  0.08736032     0.92100
O141        O  0.97290106  0.69856113  0.94015955    -0.83300
Mg142      Mg  0.91007528  0.62960184  0.95808054     1.58200
O143        O  0.94664434  0.72877756  0.04668971    -0.81700
O144        O  0.85301657  0.61888541  0.97832926    -0.83400
O145        O  0.74582866  0.92646134  0.04343266    -0.89000
C146        C  0.77215747  0.95704358  0.10247439     0.87100
Mg147      Mg  0.71125000  0.91327174  0.04060117     1.58100
O148        O  0.79552386  0.90292174  0.08338401    -0.88700
O149        O  0.78193224  0.92388108  0.03472175    -0.76000
C150        C  0.70257057  0.86386591  0.14112449     0.92100
O151        O  0.71367534  0.96070701  0.07515248    -0.75800
O152        O  0.68870558  0.87477384  0.12850108    -0.83300
Mg153      Mg  0.74675885  0.96159766  0.05496667     1.58000
C154        C  0.79552243  0.85219882  0.13186957     0.92000
O155        O  0.77695998  0.96923856  0.03370069    -0.81600
H156        H  0.80152039  0.88123353  0.05721707    -0.06900
C157        C  0.74469967  0.91199876  0.13137995     0.87000
O158        O  0.72041102  0.87666872  0.04868492    -0.76100
O159        O  0.76812004  0.94679467  0.08404855    -0.88900
O160        O  0.80637888  0.87045175  0.12719013    -0.81700
C161        C  0.83610828  0.93896503  0.11181433     0.92200
C162        C  0.79060193  0.98291145  0.04293565     0.92000
Mg163      Mg  0.74955336  0.86668424  0.10730379     1.58000
O164        O  0.72342949  0.86124732  0.13574359    -0.81600
O165        O  0.77634916  0.87051707  0.07842612    -0.75900
O166        O  0.82404080  0.94814725  0.09636739    -0.81700
O167        O  0.72905496  0.97056854  0.02316401    -0.83400
O168        O  0.66899308  0.88699137  0.07645481    -0.81700
C169        C  0.79158667  0.88475710  0.07232880     0.86400
O170        O  0.72470997  0.88069426  0.08516662    -0.88900
O171        O  0.75775466  0.89924614  0.12066745    -0.89000
O172        O  0.72389212  0.91500680  0.12584312    -0.76000
Mg173      Mg  0.80124065  0.93686390  0.06710570     1.58000
O174        O  0.83076262  0.92002634  0.12090236    -0.83400
H175        H  0.75635920  0.91366526  0.01362438    -0.07100
O176        O  0.70605716  0.92470006  0.07538167    -0.88700
H177        H  0.68504183  0.94755499  0.08929447    -0.07000
H178        H  0.72466918  0.84978763  0.06988560    -0.07100
C179        C  0.70069746  0.94434367  0.08015408     0.86400
C180        C  0.76097122  0.92078360  0.02994579     0.87000
C181        C  0.72269740  0.86800433  0.06809712     0.87100
H182        H  0.75142547  0.92149478  0.14562246    -0.07100
O183        O  0.78190092  0.94643312  0.11866473    -0.76100
Mg184      Mg  0.69734781  0.90056343  0.10054289     1.58000
H185        H  0.76764076  0.97478922  0.10440095    -0.07100
C186        C  0.71303411  0.95992721  0.01347449     0.92000
O187        O  0.67480056  0.90027218  0.04100754    -0.83400
C188        C  0.66259067  0.88994134  0.05582852     0.92100
O189        O  0.80576631  0.97451949  0.05560739    -0.83300
Mg190      Mg  0.79355063  0.90808224  0.12115700     1.58200
O191        O  0.70017049  0.94635184  0.02442295    -0.81700
O192        O  0.77438231  0.85032197  0.12877663    -0.83400
O193        O  0.81735018  0.03879981  0.00438058    -0.89000
C194        C  0.78705428  0.09890999  0.98016804     0.87100
Mg195      Mg  0.83295488  0.03691567  0.03846057     1.58100
O196        O  0.84090892  0.07924053  0.95779234    -0.88700
O197        O  0.81888502  0.03039172  0.96828308    -0.76000
C198        C  0.88254071  0.13881313  0.04520043     0.92100
O199        O  0.78545444  0.06896684  0.03943745    -0.75800
O200        O  0.87193616  0.12615794  0.05937406    -0.83300
Mg201      Mg  0.78170853  0.04970861  0.00577263     1.58000
C202        C  0.89286294  0.12665276  0.95197102     0.92000
O203        O  0.76945087  0.03109980  0.97426745    -0.81600
H204        H  0.86290044  0.05474554  0.94727582    -0.06900
C205        C  0.83379853  0.12808989  0.00483720     0.87000
O206        O  0.86897945  0.04528456  0.02713982    -0.76100
O207        O  0.79602769  0.07968292  0.98388803    -0.88900
O208        O  0.87433080  0.12036764  0.94246523    -0.81700
C209        C  0.80488720  0.10732168  0.91489395     0.92200
C210        C  0.75889286  0.04221344  0.95906479     0.92000
Mg211      Mg  0.87965561  0.10469799  0.99868971     1.58000
O212        O  0.88501838  0.13322289  0.02442612    -0.81600
O213        O  0.87582209  0.07566340  0.97173846    -0.75900
O214        O  0.79515437  0.09363624  0.92851786    -0.81700
O215        O  0.77534218  0.01548770  0.02382904    -0.83400
O216        O  0.86073452  0.07386513  0.08007158    -0.81700
C217        C  0.86000296  0.06918457  0.95832973     0.86400
O218        O  0.86628441  0.08219319  0.02402707    -0.88900
O219        O  0.84657597  0.11754358  0.99168715    -0.89000
O220        O  0.83090587  0.12240892  0.02559253    -0.76000
Mg221      Mg  0.80708163  0.06371750  0.95039313     1.58000
O222        O  0.82445537  0.11543588  0.91927153    -0.83400
H223        H  0.82860832  0.00856964  0.99339270    -0.07100
O224        O  0.82197247  0.07174463  0.04349994    -0.88700
H225        H  0.80032136  0.08426062  0.06660301    -0.07000
H226        H  0.89641403  0.06559472  0.02190969    -0.07100
C227        C  0.80263684  0.07537778  0.05065454     0.86400
C228        C  0.82215339  0.02523111  0.98907020     0.87000
C229        C  0.87826071  0.06448282  0.02489997     0.87100
H230        H  0.82408289  0.14221539  0.99820593    -0.07100
O231        O  0.79843842  0.11452217  0.97004596    -0.76100
Mg232      Mg  0.84627143  0.09741338  0.05166152     1.58000
H233        H  0.76960605  0.10202837  0.98522017    -0.07100
C234        C  0.78845673  0.00788601  0.03933096     0.92000
O235        O  0.84777533  0.03827314  0.07447695    -0.83400
C236        C  0.85810831  0.05322793  0.08656193     0.92100
O237        O  0.77036374  0.05333794  0.94472321    -0.83300
Mg238      Mg  0.83671959  0.11661435  0.95656140     1.58200
O239        O  0.79995052  0.02178324  0.05136008    -0.81700
O240        O  0.89518658  0.12694559  0.97330112    -0.83400
O241        O  0.67777253  0.99761038  0.95745741    -0.89000
C242        C  0.70892846  0.02178044  0.89848779     0.87100
Mg243      Mg  0.66373780  0.96384086  0.95968724     1.58100
O244        O  0.65391438  0.04084668  0.91703500    -0.88700
O245        O  0.67476473  0.03332388  0.96657071    -0.76000
C246        C  0.61932472  0.94923159  0.85725334     0.92100
O247        O  0.71236586  0.96389360  0.92809708    -0.75800
O248        O  0.62993439  0.93662733  0.87134092    -0.83300
Mg249      Mg  0.71333613  0.99749609  0.94732056     1.58000
C250        C  0.60297602  0.04367556  0.86861553     0.92000
O251        O  0.72133929  0.02841481  0.96772235    -0.81600
H252        H  0.63017003  0.04922315  0.94074659    -0.06900
C253        C  0.66464168  0.99307994  0.86869441     0.87000
O254        O  0.62826941  0.97368677  0.94899024    -0.76100
O255        O  0.69940095  0.01825350  0.91746891    -0.88900
O256        O  0.62080440  0.05352969  0.87608008    -0.81700
C257        C  0.68710378  0.08519693  0.88959572     0.92200
C258        C  0.73360332  0.04299004  0.95786450     0.92000
Mg259      Mg  0.61776483  0.99688092  0.88970659     1.58000
O260        O  0.61504375  0.97015862  0.86121080    -0.81600
O261        O  0.61980287  0.02429590  0.91893094    -0.75900
O262        O  0.69851410  0.07318722  0.90346962    -0.81700
O263        O  0.72034040  0.98020174  0.97999321    -0.83400
O264        O  0.63912512  0.91839394  0.92414572    -0.81700
C265        C  0.63446406  0.03864948  0.92629102     0.86400
O266        O  0.63003818  0.97249882  0.91212465    -0.88900
O267        O  0.65096612  0.00556420  0.87882230    -0.89000
O268        O  0.66839313  0.97263832  0.87477382    -0.76000
Mg269      Mg  0.68706189  0.05102735  0.93346525     1.58000
O270        O  0.66835573  0.07831096  0.88139253    -0.83400
H271        H  0.66532037  0.00747638  0.98763623    -0.07100
O272        O  0.67614466  0.95770408  0.92587652    -0.88700
H273        H  0.69893329  0.93545821  0.91389816    -0.07000
H274        H  0.60055139  0.97557830  0.92870738    -0.07100
C275        C  0.69581422  0.95146707  0.92240669     0.86400
C276        C  0.67208506  0.01238888  0.97124307     0.87000
C277        C  0.61877092  0.97320494  0.92977588     0.87100
H278        H  0.67430954  0.00003061  0.85466271    -0.07100
O279        O  0.69754413  0.03046737  0.88214098    -0.76100
Mg280      Mg  0.65314398  0.94709274  0.90024879     1.58000
H281        H  0.72674579  0.01768251  0.89618139    -0.07100
C282        C  0.70910570  0.96434699  0.98936514     0.92000
O283        O  0.65046554  0.92832507  0.95919892    -0.83400
C284        C  0.64140148  0.91422688  0.94538886     0.92100
O285        O  0.72373453  0.05775389  0.94570524    -0.83300
Mg286      Mg  0.65871614  0.04117521  0.87981850     1.58200
O287        O  0.69533916  0.95197602  0.97813564    -0.81700
O288        O  0.60200446  0.02227127  0.86653123    -0.83400
O289        O  0.75371199  0.79610621  0.68261545    -0.89000
C290        C  0.72818139  0.85517771  0.71364153     0.87100
Mg291      Mg  0.78748459  0.79388663  0.66763810     1.58100
O292        O  0.70942463  0.83543939  0.65937227    -0.88700
O293        O  0.71804692  0.78633194  0.68066426    -0.76000
C294        C  0.79822335  0.89666426  0.62117812     0.92100
O295        O  0.78707827  0.82702465  0.71576121    -0.75800
O296        O  0.81125599  0.88298476  0.63186009    -0.83300
Mg297      Mg  0.75392648  0.80708274  0.71804901     1.58000
C298        C  0.70377001  0.88342759  0.60814184     0.92000
O299        O  0.72348284  0.78610794  0.72767851    -0.81600
H300        H  0.69911154  0.81220435  0.63594651    -0.06900
C301        C  0.75582110  0.88491737  0.66842953     0.87000
O302        O  0.77642793  0.80329349  0.63189851    -0.76100
O303        O  0.73206720  0.83619052  0.70428393    -0.88900
O304        O  0.69437289  0.87521069  0.62586796    -0.81700
C305        C  0.66386399  0.86145082  0.69236232     0.92200
C306        C  0.70829738  0.79568312  0.73950198     0.92000
Mg307      Mg  0.75046851  0.86367382  0.62157722     1.58000
O308        O  0.77722264  0.89230787  0.61759299    -0.81600
O309        O  0.72325156  0.83427042  0.62418572    -0.75900
O310        O  0.67662273  0.84853533  0.70404994    -0.81700
O311        O  0.77212378  0.77493439  0.72524928    -0.83400
O312        O  0.82993587  0.83004439  0.64083840    -0.81700
C313        C  0.71002643  0.82655404  0.63969297     0.86400
O314        O  0.77535856  0.84040325  0.63414722    -0.88900
O315        O  0.74304877  0.87461123  0.65512402    -0.89000
O316        O  0.77649082  0.87912242  0.67169233    -0.76000
Mg317      Mg  0.69959403  0.81915579  0.69259810     1.58000
O318        O  0.67050247  0.86982766  0.67361145    -0.83400
H319        H  0.74406779  0.76553193  0.67106908    -0.07100
O320        O  0.79319802  0.82822943  0.67943617    -0.88700
H321        H  0.81521607  0.84134830  0.70178770    -0.07000
H322        H  0.77214664  0.82351285  0.60430938    -0.07100
C323        C  0.79938051  0.83240081  0.69898314     0.86400
C324        C  0.73902180  0.78197453  0.67758570     0.87000
C325        C  0.77519892  0.82248244  0.62243749     0.87100
H326        H  0.74893786  0.89888285  0.67822812    -0.07100
O327        O  0.71889545  0.87116408  0.70221604    -0.76100
Mg328      Mg  0.80230435  0.85396856  0.65599648     1.58000
H329        H  0.73249726  0.85779301  0.73135031    -0.07100
C330        C  0.78776655  0.76555064  0.71370341     0.92000
O331        O  0.82320528  0.79433769  0.65282066    -0.83400
C332        C  0.83559774  0.80909116  0.64265112     0.92100
O333        O  0.69338867  0.80733759  0.72927193    -0.83300
Mg334      Mg  0.70752442  0.87260465  0.66358253     1.58200
O335        O  0.80003017  0.77684039  0.69982427    -0.81700
O336        O  0.72496996  0.88697059  0.60726156    -0.83400
O337        O  0.71019072  0.74792598  0.82092469    -0.89000
C338        C  0.65054665  0.76989778  0.78961725     0.87100
Mg339      Mg  0.71213506  0.71399329  0.83542767     1.58100
O340        O  0.66736207  0.79054425  0.84481869    -0.88700
O341        O  0.71759622  0.78400909  0.82452141    -0.76000
C342        C  0.60916261  0.69959936  0.88036349     0.92100
O343        O  0.68243348  0.71266461  0.78700681    -0.75800
O344        O  0.62309573  0.68684035  0.86960510    -0.83300
Mg345      Mg  0.70096294  0.74684044  0.78506380     1.58000
C346        C  0.61818406  0.79435709  0.89525699     0.92000
O347        O  0.71922193  0.77920498  0.77547638    -0.81600
H348        H  0.69000639  0.80177162  0.86839206    -0.06900
C349        C  0.61996350  0.74288516  0.83483665     0.87000
O350        O  0.70232859  0.72449744  0.87124358    -0.76100
O351        O  0.66982167  0.76705303  0.79886527    -0.88900
O352        O  0.62528817  0.80415840  0.87718244    -0.81700
C353        C  0.63912716  0.83377863  0.80890637     0.92200
C354        C  0.70813868  0.79426472  0.76474706     0.92000
Mg355      Mg  0.64095427  0.74815302  0.88177304     1.58000
O356        O  0.61332240  0.72049881  0.88462463    -0.81600
O357        O  0.66921983  0.77640779  0.87982900    -0.75900
O358        O  0.65353121  0.82085453  0.79932029    -0.81700
O359        O  0.73573673  0.72965145  0.77955243    -0.83400
O360        O  0.67627201  0.66818547  0.85969577    -0.81700
C361        C  0.67620869  0.79020492  0.86451400     0.86400
O362        O  0.66508824  0.72369896  0.86912650    -0.88900
O363        O  0.62979619  0.75582458  0.84830695    -0.89000
O364        O  0.62654680  0.72255455  0.83120557    -0.76000
Mg365      Mg  0.68398691  0.80050168  0.81196646     1.58000
O366        O  0.63066144  0.82876210  0.82815929    -0.83400
H367        H  0.73972324  0.75902684  0.83384370    -0.07100
O368        O  0.67804616  0.70799903  0.82327355    -0.88700
H369        H  0.66709619  0.68494754  0.80077442    -0.07000
H370        H  0.68191925  0.72744958  0.89892075    -0.07100
C371        C  0.67547610  0.70106126  0.80370700     0.86400
C372        C  0.72320957  0.76326389  0.82694261     0.87000
C373        C  0.68306841  0.72461544  0.88075658     0.87100
H374        H  0.60575930  0.74938517  0.82514145    -0.07100
O375        O  0.63407379  0.77871332  0.80091609    -0.76100
Mg376      Mg  0.65222984  0.69698487  0.84607897     1.58000
H377        H  0.64808080  0.76514750  0.77199728    -0.07100
C378        C  0.74263051  0.71334877  0.79205508     0.92000
O379        O  0.71135723  0.67848102  0.84864318    -0.83400
C380        C  0.69753235  0.66408106  0.85718688     0.92100
O381        O  0.69606898  0.80805359  0.77599138    -0.83300
Mg382      Mg  0.63019635  0.79115119  0.83938450     1.58200
O383        O  0.72824378  0.70141328  0.80293724    -0.81700
O384        O  0.61690318  0.77292657  0.89675196    -0.83400
O385        O  0.82285364  0.70618338  0.74919702    -0.89000
C386        C  0.78828325  0.64811344  0.77150662     0.87100
Mg387      Mg  0.83647616  0.70972576  0.71541649     1.58100
O388        O  0.84359003  0.66342476  0.79174242    -0.88700
O389        O  0.82588386  0.71378030  0.78533434    -0.76000
C390        C  0.87860157  0.60650478  0.69749846     0.92100
O391        O  0.78651766  0.67976981  0.71476125    -0.75800
O392        O  0.86793927  0.62069547  0.68489896    -0.83300
Mg393      Mg  0.78695362  0.69787944  0.74905168     1.58000
C394        C  0.89193538  0.61332532  0.79103502     0.92000
O395        O  0.78138319  0.71739430  0.78070482    -0.81600
H396        H  0.86819552  0.68582081  0.80106262    -0.06900
C397        C  0.83134663  0.61778337  0.74074103     0.87000
O398        O  0.87216576  0.69834156  0.72439664    -0.76100
O399        O  0.79901553  0.66653798  0.76865261    -0.88900
O400        O  0.87510478  0.62138780  0.80202708    -0.81700
C401        C  0.81007053  0.63574675  0.83483804     0.92200
C402        C  0.76730788  0.70846316  0.79413349     0.92000
Mg403      Mg  0.87874822  0.63675303  0.74657993     1.58000
O404        O  0.88198901  0.61000702  0.71860027    -0.81600
O405        O  0.87772253  0.66459830  0.77530774    -0.75900
O406        O  0.79895202  0.65052318  0.82355470    -0.81700
O407        O  0.78104383  0.73146143  0.73312877    -0.83400
O408        O  0.85911122  0.67543312  0.66810347    -0.81700
C409        C  0.86335403  0.67199395  0.78991236     0.86400
O410        O  0.86756873  0.66163933  0.72278051    -0.88900
O411        O  0.84483370  0.62731616  0.75388181    -0.89000
O412        O  0.82842450  0.62435949  0.72028475    -0.76000
Mg413      Mg  0.81139163  0.68089792  0.80217155     1.58000
O414        O  0.82807585  0.62670030  0.82708437    -0.83400
H415        H  0.83705746  0.73508790  0.76035870    -0.07100
O416        O  0.82246306  0.67655055  0.70719667    -0.88700
H417        H  0.79852276  0.66609801  0.68541356    -0.07000
H418        H  0.89862799  0.67626395  0.72565535    -0.07100
C419        C  0.80246811  0.67396579  0.70156868     0.86400
C420        C  0.82920465  0.71899793  0.76457948     0.87000
C421        C  0.88047487  0.67865007  0.72361059     0.87100
H422        H  0.82119434  0.60380243  0.74706204    -0.07100
O423        O  0.79862848  0.63080340  0.77957198    -0.76100
Mg424      Mg  0.84456400  0.65030311  0.69555795     1.58000
H425        H  0.77035937  0.64709851  0.76736555    -0.07100
C426        C  0.79200118  0.74134649  0.71740500     0.92000
O427        O  0.84925239  0.71041295  0.68003218    -0.83400
C428        C  0.85748054  0.69697984  0.66511951     0.92100
O429        O  0.77500808  0.69486312  0.80890804    -0.83300
Mg430      Mg  0.83732349  0.62655823  0.78986363     1.58200
O431        O  0.80589107  0.73065467  0.70468028    -0.81700
O432        O  0.89106906  0.61074744  0.76979508    -0.83400
O433        O  0.95462100  0.07329635  0.74812319    -0.89000
C434        C  0.89732355  0.03919211  0.72359063     0.87100
Mg435      Mg  0.95706598  0.08643211  0.78199702     1.58100
O436        O  0.91347216  0.09484977  0.70430776    -0.88700
O437        O  0.96350533  0.07668917  0.71231215    -0.76000
C438        C  0.85294759  0.12583311  0.79834095     0.92100
O439        O  0.92692396  0.03632921  0.78123591    -0.75800
O440        O  0.86755318  0.11587758  0.81094599    -0.83300
Mg441      Mg  0.94605526  0.03743989  0.74764085     1.58000
C442        C  0.86399531  0.14321672  0.70396763     0.92000
O443        O  0.96663275  0.03252784  0.71680858    -0.81600
H444        H  0.93678711  0.11953796  0.69788060    -0.06900
C445        C  0.86636911  0.08121020  0.75395394     0.87000
O446        O  0.94460950  0.12165408  0.77345105    -0.76100
O447        O  0.91549470  0.05008781  0.72727722    -0.88900
O448        O  0.87211967  0.12588404  0.69392674    -0.81700
C449        C  0.88669853  0.06185854  0.66033432     0.92200
C450        C  0.95798735  0.01811328  0.70363597     0.92000
Mg451      Mg  0.88498671  0.12876189  0.75038301     1.58000
O452        O  0.85660984  0.13008814  0.77733940    -0.81600
O453        O  0.91429883  0.12801515  0.72293461    -0.75900
O454        O  0.90141637  0.05061966  0.67160933    -0.81700
O455        O  0.97859745  0.03033022  0.76483167    -0.83400
O456        O  0.92165064  0.10819477  0.82875751    -0.81700
C457        C  0.92224921  0.11431696  0.70792713     0.86400
O458        O  0.90800031  0.11768000  0.77471818    -0.88900
O459        O  0.87608865  0.09516400  0.74146476    -0.89000
O460        O  0.87242198  0.07785108  0.77448463    -0.76000
Mg461      Mg  0.93114981  0.06242338  0.69431773     1.58000
O462        O  0.87754892  0.07974491  0.66818986    -0.83400
H463        H  0.98393085  0.08760076  0.73810995    -0.07100
O464        O  0.92400628  0.07219780  0.78881539    -0.88700
H465        H  0.91296264  0.04836336  0.81041912    -0.07000
H466        H  0.92271897  0.14818297  0.77252889    -0.07100
C467        C  0.92116439  0.05225533  0.79440811     0.86400
C468        C  0.96798783  0.07979847  0.73326084     0.87000
C469        C  0.92489467  0.13000990  0.77429774     0.87100
H470        H  0.85269671  0.07106147  0.74699207    -0.07100
O471        O  0.88022229  0.04948119  0.71506784    -0.76100
Mg472      Mg  0.89752111  0.09389396  0.80002939     1.58000
H473        H  0.89636653  0.02120669  0.72740400    -0.07100
C474        C  0.98821388  0.04068549  0.78107739     0.92000
O475        O  0.95691006  0.09850077  0.81766192    -0.83400
C476        C  0.94310700  0.10644544  0.83239706     0.92100
O477        O  0.94503528  0.02558770  0.68814905    -0.83300
Mg478      Mg  0.87651745  0.08829052  0.70547662     1.58200
O479        O  0.97827893  0.05611112  0.79255492    -0.81700
O480        O  0.86074179  0.14334912  0.72524085    -0.83400
O481        O  0.04238693  0.00043883  0.81957455    -0.89000
C482        C  0.10087386  0.97466065  0.78771020     0.87100
Mg483      Mg  0.04016981  0.03447993  0.83338310     1.58100
O484        O  0.08343405  0.95659203  0.84313705    -0.88700
O485        O  0.03342201  0.96467494  0.82322420    -0.76000
C486        C  0.14360976  0.04800372  0.87660267     0.92100
O487        O  0.07226974  0.03301461  0.78441057    -0.75800
O488        O  0.12953781  0.06055199  0.86590392    -0.83300
Mg489      Mg  0.05255717  0.99975367  0.78400542     1.58000
C490        C  0.13380813  0.95392074  0.89284354     0.92000
O491        O  0.03185070  0.96904731  0.77673949    -0.81600
H492        H  0.06113618  0.94667774  0.86765265    -0.06900
C493        C  0.13173088  0.00403706  0.83107072     0.87000
O494        O  0.05054762  0.02453583  0.86919269    -0.76100
O495        O  0.08224102  0.97858289  0.79775847    -0.88900
O496        O  0.12550231  0.94399110  0.87543808    -0.81700
C497        C  0.10963687  0.91118753  0.81039988     0.92200
C498        C  0.04153471  0.95449458  0.76431472     0.92000
Mg499      Mg  0.11173062  0.99965356  0.87867432     1.58000
O500        O  0.13962430  0.02709808  0.88090322    -0.81600
O501        O  0.08298620  0.97169092  0.87781301    -0.75900
O502        O  0.09545758  0.92303740  0.79914950    -0.81700
O503        O  0.02039813  0.01773296  0.77657542    -0.83400
O504        O  0.07629286  0.07794290  0.85770560    -0.81700
C505        C  0.07512026  0.95775206  0.86305057     0.86400
O506        O  0.08758782  0.02357369  0.86575406    -0.88900
O507        O  0.12201217  0.99148604  0.84502680    -0.89000
O508        O  0.12545264  0.02446653  0.82733906    -0.76000
Mg509      Mg  0.06601429  0.94609496  0.81061387     1.58000
O510        O  0.11862468  0.91852227  0.82859209    -0.83400
H511        H  0.01246026  0.99061134  0.83267203    -0.07100
O512        O  0.07412725  0.04014121  0.82048252    -0.88700
H513        H  0.08648227  0.06169849  0.79725417    -0.07000
H514        H  0.07167404  0.02109943  0.89622247    -0.07100
C515        C  0.07779847  0.04584985  0.80069398     0.86400
C516        C  0.02875380  0.98565941  0.82567958     0.87000
C517        C  0.07004550  0.02364046  0.87805759     0.87100
H518        H  0.14557570  0.99712704  0.82110078    -0.07100
O519        O  0.11745808  0.96595017  0.79871582    -0.76100
Mg520      Mg  0.10022215  0.05026682  0.84288932     1.58000
H521        H  0.10267637  0.97845466  0.76977742    -0.07100
C522        C  0.01143341  0.03443637  0.78685257     0.92000
O523        O  0.04035719  0.07049356  0.84692978    -0.83400
C524        C  0.05524172  0.08334932  0.85621661     0.92100
O525        O  0.05304295  0.93916118  0.77411879    -0.83300
Mg526      Mg  0.12065725  0.95581532  0.83755847     1.58200
O527        O  0.02227057  0.04621849  0.80143799    -0.81700
O528        O  0.13609859  0.97527737  0.89360250    -0.83400
O529        O  0.99694405  0.96056124  0.68040183    -0.89000
C530        C  0.01789492  0.90075408  0.71217404     0.87100
Mg531      Mg  0.96323539  0.96326075  0.66455996     1.58100
O532        O  0.04149074  0.91772165  0.65757771    -0.88700
O533        O  0.03329517  0.96772053  0.67870278    -0.76000
C534        C  0.95081280  0.86116489  0.61754154     0.92100
O535        O  0.95993550  0.93311902  0.71256336    -0.75800
O536        O  0.93674197  0.87443859  0.62756970    -0.83300
Mg537      Mg  0.99436487  0.95107673  0.71621007     1.58000
C538        C  0.04342681  0.86745733  0.60745509     0.92000
O539        O  0.02679180  0.96803533  0.72825185    -0.81600
H540        H  0.05210633  0.94166670  0.63506476    -0.06900
C541        C  0.99135391  0.87133468  0.66601243     0.87000
O542        O  0.97463194  0.95421653  0.62888187    -0.76100
O543        O  0.01509657  0.91989867  0.70274472    -0.88900
O544        O  0.05403291  0.87335050  0.62550747    -0.81700
C545        C  0.08271636  0.88881085  0.69392638     0.92200
C546        C  0.04128356  0.95614368  0.73900729     0.92000
Mg547      Mg  0.99837451  0.89365539  0.61998673     1.58000
O548        O  0.97171740  0.86622651  0.61523536    -0.81600
O549        O  0.02651088  0.92156919  0.62310658    -0.75900
O550        O  0.06966291  0.90309028  0.70358933    -0.81700
O551        O  0.97746952  0.98650948  0.72077951    -0.83400
O552        O  0.91772575  0.92819183  0.63819422    -0.81700
C553        C  0.04064716  0.92764675  0.63843284     0.86400
O554        O  0.97379910  0.91726874  0.63213216    -0.88900
O555        O  0.00499045  0.88127588  0.65328657    -0.89000
O556        O  0.97072708  0.87767137  0.66841667    -0.76000
Mg557      Mg  0.04943035  0.93382584  0.69115457     1.58000
O558        O  0.07765123  0.88014463  0.67478122    -0.83400
H559        H  0.00892848  0.99022730  0.66865003    -0.07100
O560        O  0.95593212  0.92907267  0.67616324    -0.88700
H561        H  0.93228688  0.91825888  0.69813686    -0.07000
H562        H  0.97744387  0.93308366  0.60174798    -0.07100
C563        C  0.94858172  0.92643160  0.69557661     0.86400
C564        C  0.01269581  0.97353998  0.67537967     0.87000
C565        C  0.97460785  0.93478268  0.61987122     0.87100
H566        H  0.99738849  0.85713985  0.67600868    -0.07100
O567        O  0.02717170  0.88439852  0.70114324    -0.76100
Mg568      Mg  0.94568982  0.90348072  0.65262958     1.58000
H569        H  0.01281919  0.89833414  0.72971712    -0.07100
C570        C  0.96186974  0.99337067  0.70732686     0.92000
O571        O  0.92806089  0.96311680  0.64979646    -0.83400
C572        C  0.91386985  0.94953344  0.64047061     0.92100
O573        O  0.05559448  0.94478589  0.72768988    -0.83300
Mg574      Mg  0.04029547  0.88031761  0.66292019     1.58200
O575        O  0.94992762  0.97880041  0.69676886    -0.81700
O576        O  0.02227902  0.87006707  0.60536982    -0.83400
O577        O  0.00571319  0.65198858  0.37944379    -0.89000
C578        C  0.97470237  0.61984805  0.43311960     0.87100
Mg579      Mg  0.04108329  0.66125834  0.38045027     1.58100
O580        O  0.95766975  0.67718205  0.42722811    -0.88700
O581        O  0.97225861  0.66853444  0.37566619    -0.76000
C582        C  0.04371400  0.73655676  0.45791036     0.92100
O583        O  0.02633669  0.62106575  0.41931760    -0.75800
O584        O  0.05720488  0.72534405  0.44548140    -0.83300
Mg585      Mg  0.99824904  0.61858362  0.39088700     1.58000
C586        C  0.96245757  0.70989063  0.49179860     0.92000
O587        O  0.97087837  0.61457899  0.36304760    -0.81600
H588        H  0.93454714  0.69942130  0.41594806    -0.06900
C589        C  0.01274578  0.67454400  0.47292988     0.87000
O590        O  0.02802239  0.69957713  0.38348798    -0.76100
O591        O  0.97345802  0.63096953  0.41484019    -0.88900
O592        O  0.95074131  0.69811305  0.47791481    -0.81700
C593        C  0.91402081  0.64338429  0.44734506     0.92200
C594        C  0.94990803  0.61836724  0.35880288     0.92000
Mg595      Mg  0.99614760  0.71598680  0.45007186     1.58000
O596        O  0.02829995  0.72597009  0.46867559    -0.81600
O597        O  0.96204739  0.71350677  0.43140254    -0.75900
O598        O  0.91804978  0.64047127  0.42610310    -0.81700
O599        O  0.02315381  0.60448679  0.36692125    -0.83400
O600        O  0.06915943  0.70227876  0.40291874    -0.81700
C601        C  0.95062300  0.69667182  0.42445704     0.86400
O602        O  0.01630870  0.70206615  0.41922832    -0.88900
O603        O  0.99750071  0.68031726  0.45971655    -0.89000
O604        O  0.03353376  0.67702668  0.46743603    -0.76000
Mg605      Mg  0.94678546  0.65376995  0.40160443     1.58000
O606        O  0.92843619  0.65219432  0.46093289    -0.83400
H607        H  0.99920017  0.67460739  0.35493061    -0.07100
O608        O  0.03939953  0.65644094  0.41751731    -0.88700
H609        H  0.05133381  0.63321956  0.44014629    -0.07000
H610        H  0.01394725  0.72847720  0.39698050    -0.07100
C611        C  0.03967658  0.63675671  0.42635008     0.86400
C612        C  0.99270228  0.66509737  0.36927530     0.87000
C613        C  0.01900567  0.71100298  0.39977024     0.87100
H614        H  0.00838427  0.66779739  0.48947909    -0.07100
O615        O  0.97460137  0.62983230  0.45213039    -0.76100
Mg616      Mg  0.04965288  0.68941173  0.43363275     1.58000
H617        H  0.97779357  0.60171348  0.43242242    -0.07100
C618        C  0.04450156  0.60549182  0.36931143     0.92000
O619        O  0.07886505  0.67275913  0.38196469    -0.83400
C620        C  0.08342553  0.69217613  0.39032020     0.92100
O621        O  0.93703471  0.62939523  0.37251470    -0.83300
Mg622      Mg  0.96374587  0.66563694  0.46160013     1.58200
O623        O  0.05437328  0.62341528  0.37667331    -0.81700
O624        O  0.97884490  0.72205522  0.48449569    -0.83400
O625        O  0.87754235  0.74605946  0.59728632    -0.89000
C626        C  0.92850157  0.77986395  0.63010206     0.87100
Mg627      Mg  0.87669001  0.71033239  0.58908498     1.58100
O628        O  0.92466386  0.79557640  0.57301437    -0.88700
O629        O  0.87323356  0.77956705  0.58098456    -0.76000
C630        C  0.95712128  0.70929554  0.51645137     0.92100
O631        O  0.91876531  0.72735161  0.62689904    -0.75800
O632        O  0.94347979  0.69483936  0.52465399    -0.83300
Mg633      Mg  0.88995642  0.75430323  0.63014030     1.58000
C634        C  0.98890457  0.78614050  0.54068188     0.92000
O635        O  0.86185071  0.78014667  0.63521202    -0.81600
H636        H  0.91249451  0.81703533  0.54962074    -0.06900
C637        C  0.96846987  0.73968466  0.57843484     0.87000
O638        O  0.87992159  0.72121849  0.55048620    -0.76100
O639        O  0.91162676  0.77891950  0.61782390    -0.88900
O640        O  0.97823386  0.79973630  0.55382292    -0.81700
C641        C  0.94346747  0.83900094  0.60843900     0.92200
C642        C  0.85702305  0.80104893  0.63254019     0.92000
Mg643      Mg  0.94551569  0.75432322  0.53685383     1.58000
O644        O  0.96608929  0.72327640  0.52998609    -0.81600
O645        O  0.92640611  0.78807140  0.53699736    -0.75900
O646        O  0.92269240  0.83285480  0.61079742    -0.81700
O647        O  0.86773042  0.72950570  0.64610976    -0.83400
O648        O  0.90071782  0.67730672  0.54985956    -0.81700
C649        C  0.92098259  0.80112022  0.55318431     0.86400
O650        O  0.91508336  0.73370415  0.55033156    -0.88900
O651        O  0.95551158  0.75512478  0.57247750    -0.89000
O652        O  0.96326410  0.71887737  0.57507873    -0.76000
Mg653      Mg  0.89871354  0.80494886  0.59655100     1.58000
O654        O  0.95850023  0.82648430  0.59870716    -0.83400
H655        H  0.85320460  0.75226525  0.57436001    -0.07100
O656        O  0.91401337  0.70772995  0.59473146    -0.88700
H657        H  0.93981774  0.70181236  0.61682926    -0.07000
H658        H  0.89510821  0.73451108  0.52207294    -0.07100
C659        C  0.92486374  0.71182800  0.61297629     0.86400
C660        C  0.86728795  0.75896196  0.58411608     0.87000
C661        C  0.89663161  0.73019550  0.53991109     0.87100
H662        H  0.98473117  0.74389093  0.58593941    -0.07100
O663        O  0.94812548  0.78096082  0.62159236    -0.76100
Mg664      Mg  0.93063970  0.70028622  0.56145986     1.58000
H665        H  0.92656715  0.77795784  0.64829795    -0.07100
C666        C  0.86587868  0.70820763  0.64456968     0.92000
O667        O  0.87662886  0.67339621  0.57887246    -0.83400
C668        C  0.88572436  0.66593434  0.56074708     0.92100
O669        O  0.86997172  0.81454309  0.62146718    -0.83300
Mg670      Mg  0.95876694  0.78970263  0.58580143     1.58200
O671        O  0.87103698  0.69753878  0.62643525    -0.81700
O672        O  0.97854415  0.77095126  0.52942021    -0.83400
O673        O  0.12248165  0.84761687  0.49624076    -0.89000
C674        C  0.06832164  0.87877213  0.52774043     0.87100
Mg675      Mg  0.12300345  0.83867765  0.46068881     1.58100
O676        O  0.07607986  0.82235321  0.54550669    -0.88700
O677        O  0.12710780  0.83231649  0.53027081    -0.76000
C678        C  0.04606759  0.76163487  0.45920526     0.92100
O679        O  0.08089950  0.87656099  0.47537691    -0.75800
O680        O  0.05868726  0.77198705  0.44517233    -0.83300
Mg681      Mg  0.10891144  0.88035791  0.50332816     1.58000
C682        C  0.01366849  0.78785340  0.53769280     0.92000
O683        O  0.13614364  0.88621157  0.52999370    -0.81600
H684        H  0.08923420  0.79990553  0.56737251    -0.06900
C685        C  0.03120678  0.82343591  0.48938778     0.87000
O686        O  0.12114468  0.80017997  0.47251445    -0.76100
O687        O  0.08604865  0.86683035  0.52771481    -0.88900
O688        O  0.02562682  0.80043384  0.55061005    -0.81700
C689        C  0.05443021  0.85756587  0.58740466     0.92200
C690        C  0.14106023  0.88408521  0.55093633     0.92000
Mg691      Mg  0.05603277  0.78322026  0.50534730     1.58000
O692        O  0.03598856  0.77314428  0.47431328    -0.81600
O693        O  0.07521421  0.78606150  0.53903048    -0.75900
O694        O  0.07561909  0.86055481  0.58326414    -0.81700
O695        O  0.13180428  0.89607730  0.47945381    -0.83400
O696        O  0.10050107  0.79753461  0.42955139    -0.81700
C697        C  0.08043288  0.80278809  0.55148701     0.86400
O698        O  0.08571458  0.79759595  0.48440570    -0.88900
O699        O  0.04478496  0.81846489  0.50460418    -0.89000
O700        O  0.03641533  0.82045632  0.46858047    -0.76000
Mg701      Mg  0.10071998  0.84689521  0.55559083     1.58000
O702        O  0.04102511  0.84726757  0.57372803    -0.83400
H703        H  0.14763910  0.82582745  0.50325446    -0.07100
O704        O  0.08548964  0.84240645  0.45989207    -0.88700
H705        H  0.06084504  0.86439817  0.44985913    -0.07000
H706        H  0.10775405  0.77095508  0.48593895    -0.07100
C707        C  0.07506772  0.86125825  0.46111135     0.86400
C708        C  0.13310122  0.83516581  0.50958785     0.87000
C709        C  0.10500424  0.78856495  0.48134009     0.87100
H710        H  0.01452478  0.82983181  0.49381197    -0.07100
O711        O  0.04911262  0.86933220  0.52804571    -0.76100
Mg712      Mg  0.06999575  0.80872396  0.45116816     1.58000
H713        H  0.06957899  0.89699038  0.52540233    -0.07100
C714        C  0.13314754  0.89457470  0.45813773     0.92000
O715        O  0.12229358  0.82777606  0.42355435    -0.83400
C716        C  0.11380208  0.80902567  0.41692234     0.92100
O717        O  0.12827727  0.87319944  0.56476548    -0.83300
Mg718      Mg  0.04142293  0.83306525  0.53843385     1.58200
O719        O  0.12755009  0.87646736  0.44751450    -0.81700
O720        O  0.02304121  0.77557413  0.52259934    -0.83400
O721        O  0.86999147  0.24043904  0.65114523    -0.89000
C722        C  0.81724520  0.27317455  0.61834733     0.87100
Mg723      Mg  0.86852582  0.20559629  0.66059627     1.58100
O724        O  0.82146522  0.29015148  0.67560988    -0.88700
O725        O  0.87328457  0.27376479  0.66824333    -0.76000
C726        C  0.79048120  0.20349680  0.73552620     0.92100
O727        O  0.82970346  0.21939387  0.61970156    -0.75800
O728        O  0.80254723  0.18982856  0.72414644    -0.83300
Mg729      Mg  0.85796240  0.24749645  0.61780812     1.58000
C730        C  0.75604943  0.28480469  0.70720555     0.92000
O731        O  0.88573814  0.27396086  0.61436150    -0.81600
H732        H  0.83229980  0.31315534  0.69820943    -0.06900
C733        C  0.77561283  0.23423485  0.67272806     0.87000
O734        O  0.86469340  0.21892459  0.69886576    -0.76100
O735        O  0.83425385  0.27176995  0.63125105    -0.88900
O736        O  0.76983984  0.29672831  0.69542525    -0.81700
C737        C  0.80373671  0.33363725  0.64030361     0.92200
C738        C  0.89121726  0.29457650  0.61780989     0.92000
Mg739      Mg  0.79824423  0.25126685  0.71465909     1.58000
O740        O  0.77976177  0.21902956  0.72506209    -0.81600
O741        O  0.81687777  0.28544686  0.71193402    -0.75900
O742        O  0.82450305  0.32737583  0.63804704    -0.81700
O743        O  0.88179020  0.22318182  0.60264153    -0.83400
O744        O  0.84515754  0.17797551  0.70137685    -0.81700
C745        C  0.82392173  0.29705240  0.69522446     0.86400
O746        O  0.82900274  0.23077067  0.70121449    -0.88900
O747        O  0.79045490  0.24919827  0.67684736    -0.89000
O748        O  0.78027910  0.21338762  0.67606286    -0.76000
Mg749      Mg  0.84814646  0.29933154  0.65256406     1.58000
O750        O  0.78846683  0.32125528  0.64971617    -0.83400
H751        H  0.89384557  0.24681689  0.67451352    -0.07100
O752        O  0.83123279  0.20740111  0.65533948    -0.88700
H753        H  0.80913598  0.19433424  0.63218341    -0.07000
H754        H  0.85115521  0.23314550  0.72769534    -0.07100
C755        C  0.82268619  0.20633652  0.63558380     0.86400
C756        C  0.87979235  0.25339421  0.66465095     0.87000
C757        C  0.84841116  0.22804505  0.71021581     0.87100
H758        H  0.75893288  0.23914215  0.66665338    -0.07100
O759        O  0.79757913  0.27544557  0.62662095    -0.76100
Mg760      Mg  0.81452386  0.19738436  0.68829264     1.58000
H761        H  0.81934232  0.27078193  0.60020334    -0.07100
C762        C  0.88160596  0.20182973  0.60473902     0.92000
O763        O  0.86652795  0.16830806  0.67206622    -0.83400
C764        C  0.85802232  0.16386364  0.69142208     0.92100
O765        O  0.87806594  0.30835913  0.62835808    -0.83300
Mg766      Mg  0.78722246  0.28504798  0.66263128     1.58200
O767        O  0.87435778  0.19208382  0.62283999    -0.81700
O768        O  0.76345136  0.26842760  0.71928418    -0.83400
O769        O  0.75240223  0.12457286  0.84782187    -0.89000
C770        C  0.72255715  0.17958117  0.87845437     0.87100
Mg771      Mg  0.78763211  0.12433207  0.83847239     1.58100
O772        O  0.70417914  0.17222881  0.82178767    -0.88700
O773        O  0.71866754  0.12124458  0.83152269    -0.76000
C774        C  0.78943332  0.20108692  0.76064844     0.92100
O775        O  0.77432127  0.16529298  0.87694197    -0.75800
O776        O  0.80327885  0.18813703  0.77086406    -0.83300
Mg777      Mg  0.74567628  0.13758651  0.88084917     1.58000
C778        C  0.71050044  0.23378125  0.78690371     0.92000
O779        O  0.71773368  0.11061827  0.88538116    -0.81600
H780        H  0.68135987  0.15946892  0.80002624    -0.06900
C781        C  0.76008471  0.21637034  0.82249402     0.87000
O782        O  0.77520466  0.12606214  0.80002543    -0.76100
O783        O  0.72154969  0.16134171  0.86728834    -0.88900
O784        O  0.69816869  0.22169534  0.79989924    -0.81700
C785        C  0.66216371  0.19427916  0.85696143     0.92200
C786        C  0.69664483  0.10678537  0.88180231     0.92000
Mg787      Mg  0.74342026  0.19174042  0.78241288     1.58000
O788        O  0.77463684  0.21141876  0.77232161    -0.81600
O789        O  0.70954550  0.17300316  0.78534386    -0.75900
O790        O  0.66609987  0.17306216  0.85976054    -0.81700
O791        O  0.77027969  0.11397840  0.89688210    -0.83400
O792        O  0.81831217  0.14589053  0.79653047    -0.81700
C793        C  0.69749514  0.16799476  0.80242080     0.86400
O794        O  0.76394761  0.16169318  0.79676639    -0.88900
O795        O  0.74464404  0.20303476  0.81753082    -0.89000
O796        O  0.78079791  0.21080393  0.81956594    -0.76000
Mg797      Mg  0.69376343  0.14793854  0.84600561     1.58000
O798        O  0.67607627  0.20757785  0.84690538    -0.83400
H799        H  0.74510304  0.09986283  0.82561712    -0.07100
O800        O  0.78794500  0.16171554  0.84181115    -0.88700
H801        H  0.79966604  0.18532474  0.86416267    -0.07000
H802        H  0.76167135  0.13904437  0.77067715    -0.07100
C803        C  0.78792854  0.17147176  0.86108882     0.86400
C804        C  0.73901317  0.11449826  0.83494983     0.87000
C805        C  0.76654329  0.14212151  0.78816590     0.87100
H806        H  0.75594529  0.23312125  0.82886197    -0.07100
O807        O  0.72226048  0.19849346  0.86839858    -0.76100
Mg808      Mg  0.79737224  0.17689382  0.80785081     1.58000
H809        H  0.72563531  0.17896097  0.89659743    -0.07100
C810        C  0.79171977  0.11456794  0.89486860     0.92000
O811        O  0.82460523  0.12477816  0.82712230    -0.83400
C812        C  0.83097333  0.13266752  0.80803326     0.92100
O813        O  0.68384647  0.12058002  0.87105551    -0.83300
Mg814      Mg  0.71115408  0.20659940  0.83243336     1.58200
O815        O  0.80126160  0.12085281  0.87634125    -0.81700
O816        O  0.72626139  0.22485619  0.77511240    -0.83400
O817        O  0.65306182  0.37260846  0.74421587    -0.89000
C818        C  0.61752529  0.32274537  0.77652135     0.87100
Mg819      Mg  0.66142041  0.37215479  0.70838031     1.58100
O820        O  0.67482438  0.32314199  0.79313894    -0.88700
O821        O  0.66982631  0.37498657  0.77770236    -0.76000
C822        C  0.73136514  0.29022727  0.70707343     0.92100
O823        O  0.62058481  0.33399220  0.72451545    -0.75800
O824        O  0.72306572  0.30387034  0.69274657    -0.83300
Mg825      Mg  0.61927177  0.36276870  0.75216942     1.58000
C826        C  0.70584336  0.25806926  0.78419214     0.92000
O827        O  0.61591410  0.39075542  0.77915253    -0.81600
H828        H  0.69804765  0.33378193  0.81559878    -0.06900
C829        C  0.66859225  0.27991463  0.73722227     0.87000
O830        O  0.69983921  0.36795218  0.71988410    -0.76100
O831        O  0.63010857  0.33944686  0.77644413    -0.88900
O832        O  0.69105227  0.26785908  0.79676686    -0.81700
C833        C  0.63806708  0.30550611  0.83614324     0.92200
C834        C  0.61944244  0.39422905  0.80026701     0.92000
Mg835      Mg  0.71078921  0.30172769  0.75255221     1.58000
O836        O  0.71791847  0.28136765  0.72126889    -0.81600
O837        O  0.71091057  0.32018092  0.78658687    -0.75900
O838        O  0.63671558  0.32647444  0.83036430    -0.81700
O839        O  0.60576584  0.38719970  0.72711686    -0.83400
O840        O  0.70024784  0.34707874  0.67803703    -0.81700
C841        C  0.69460771  0.32584945  0.79936110     0.86400
O842        O  0.69864604  0.33273126  0.73243017    -0.88900
O843        O  0.67473194  0.29280717  0.75263092    -0.89000
O844        O  0.67220736  0.28499955  0.71646957    -0.76000
Mg845      Mg  0.65264428  0.35006701  0.80267193     1.58000
O846        O  0.64714036  0.29032498  0.82333518    -0.83400
H847        H  0.67762983  0.39520281  0.75085006    -0.07100
O848        O  0.65466766  0.33528727  0.70796589    -0.88700
H849        H  0.63036889  0.31233297  0.69924750    -0.07000
H850        H  0.72752606  0.35186285  0.73361309    -0.07100
C851        C  0.63501781  0.32650753  0.71003638     0.86400
C852        C  0.66697669  0.38164430  0.75726932     0.87000
C853        C  0.70970851  0.35088551  0.72902926     0.87100
H854        H  0.66066542  0.26385623  0.74142156    -0.07100
O855        O  0.62557872  0.30292127  0.77749656    -0.76100
Mg856      Mg  0.68686296  0.31754933  0.69912620     1.58000
H857        H  0.59943449  0.32504716  0.77406300    -0.07100
C858        C  0.60625720  0.38425707  0.70582866     0.92000
O859        O  0.67212687  0.37114447  0.67079334    -0.83400
C860        C  0.69087224  0.36182412  0.66535244     0.92100
O861        O  0.63001662  0.37998139  0.81274446    -0.83300
Mg862      Mg  0.66056038  0.28993448  0.78673440     1.58200
O863        O  0.62392909  0.37670359  0.69579295    -0.81700
O864        O  0.71693191  0.26864407  0.76902395    -0.83400
O865        O  0.68099701  0.49918931  0.45919667    -0.89000
C866        C  0.71267081  0.52256057  0.39956620     0.87100
Mg867      Mg  0.66607984  0.46503729  0.46122589     1.58100
O868        O  0.65775427  0.54451890  0.41630737    -0.88700
O869        O  0.67784063  0.53544871  0.46645799    -0.76000
C870        C  0.61913592  0.45441505  0.35836230     0.92100
O871        O  0.71443266  0.46426017  0.43052443    -0.75800
O872        O  0.62976746  0.44074869  0.37150384    -0.83300
Mg873      Mg  0.71679252  0.49822797  0.44938602     1.58000
C874        C  0.60778587  0.54707194  0.36586657     0.92000
O875        O  0.72696225  0.53028049  0.46779575    -0.81600
H876        H  0.63458651  0.55564603  0.43942636    -0.06900
C877        C  0.66744386  0.49607727  0.36891811     0.87000
O878        O  0.63023576  0.47591327  0.45172984    -0.76100
O879        O  0.70306016  0.51922653  0.41858111    -0.88900
O880        O  0.62546808  0.55803844  0.37234612    -0.81700
C881        C  0.69420501  0.58699365  0.38877925     0.92200
C882        C  0.73793393  0.54520800  0.45671392     0.92000
Mg883      Mg  0.62103471  0.50198095  0.39100944     1.58000
O884        O  0.61652297  0.47527763  0.36338508    -0.81600
O885        O  0.62302611  0.53007248  0.41905793    -0.75900
O886        O  0.70352748  0.57396603  0.40326494    -0.81700
O887        O  0.72251658  0.48055489  0.48387632    -0.83400
O888        O  0.64013763  0.42230073  0.42472913    -0.81700
C889        C  0.63828449  0.54405567  0.42559943     0.86400
O890        O  0.63390623  0.47777328  0.41479100    -0.88900
O891        O  0.65425510  0.50929707  0.37882116    -0.89000
O892        O  0.67037076  0.47552070  0.37520045    -0.76000
Mg893      Mg  0.69071743  0.55284555  0.43325757     1.58000
O894        O  0.67510073  0.58208754  0.37988342    -0.83400
H895        H  0.66807824  0.51063166  0.48861222    -0.07100
O896        O  0.67809419  0.45948851  0.42672353    -0.88700
H897        H  0.70050508  0.43663460  0.41517143    -0.07000
H898        H  0.60334083  0.48032610  0.43057268    -0.07100
C899        C  0.69764980  0.45264967  0.42375853     0.86400
C900        C  0.67512446  0.51470817  0.47210899     0.87000
C901        C  0.62146377  0.47744878  0.43223246     0.87100
H902        H  0.67744425  0.50246893  0.35485065    -0.07100
O903        O  0.70171445  0.53196946  0.38324413    -0.76100
Mg904      Mg  0.65467021  0.45004250  0.40067126     1.58000
H905        H  0.73031119  0.51777894  0.39722166    -0.07100
C906        C  0.71039160  0.46412869  0.49124443     0.92000
O907        O  0.65181946  0.42903124  0.46053710    -0.83400
C908        C  0.64220125  0.41642748  0.44560221     0.92100
O909        O  0.72683184  0.55957387  0.44527807    -0.83300
Mg910      Mg  0.66338192  0.54469960  0.37898712     1.58200
O911        O  0.69866698  0.45227280  0.47742158    -0.81700
O912        O  0.60663074  0.52572902  0.36718747    -0.83400
O913        O  0.81957287  0.54506742  0.50105617    -0.89000
C914        C  0.78737103  0.60417739  0.47810427     0.87100
Mg915      Mg  0.83438279  0.54159625  0.53448333     1.58100
O916        O  0.84259207  0.58671722  0.45882178    -0.88700
O917        O  0.82209365  0.53676731  0.46509595    -0.76000
C918        C  0.87804017  0.64413046  0.55141037     0.92100
O919        O  0.78560918  0.57308005  0.53609677    -0.75800
O920        O  0.86800509  0.62978250  0.56430728    -0.83300
Mg921      Mg  0.78394866  0.55467764  0.50200205     1.58000
C922        C  0.89249221  0.63653085  0.45797428     0.92000
O923        O  0.77527471  0.53545784  0.47041137    -0.81600
H924        H  0.86681944  0.56442036  0.44828036    -0.06900
C925        C  0.83149592  0.63315615  0.50844978     0.87000
O926        O  0.86995107  0.55179410  0.52378753    -0.76100
O927        O  0.79710335  0.58527044  0.48136387    -0.88900
O928        O  0.87569308  0.62830031  0.44702305    -0.81700
C929        C  0.81022172  0.61440577  0.41426042     0.92200
C930        C  0.76323856  0.54578749  0.45594364     0.92000
Mg931      Mg  0.87859539  0.61349968  0.50252661     1.58000
O932        O  0.88144041  0.64046098  0.53032663    -0.81600
O933        O  0.87731034  0.58553988  0.47377532    -0.75900
O934        O  0.79855934  0.60054133  0.42613827    -0.81700
O935        O  0.77820445  0.52103385  0.51882514    -0.83400
O936        O  0.85918037  0.57534461  0.58103665    -0.81700
C937        C  0.86240952  0.57816518  0.45971405     0.86400
O938        O  0.86720681  0.58874084  0.52644587    -0.88900
O939        O  0.84485707  0.62347289  0.49524981    -0.89000
O940        O  0.82862941  0.62670770  0.52897847    -0.76000
Mg941      Mg  0.80980239  0.57017250  0.44810786     1.58000
O942        O  0.82845144  0.62316806  0.42181123    -0.83400
H943        H  0.83173260  0.51510225  0.49033223    -0.07100
O944        O  0.82185583  0.57515253  0.54254459    -0.88700
H945        H  0.79890055  0.58658606  0.56492547    -0.07000
H946        H  0.89732206  0.57269607  0.52180046    -0.07100
C947        C  0.80212156  0.57844834  0.54873552     0.86400
C948        C  0.82500107  0.53162038  0.48588275     0.87000
C949        C  0.87918495  0.57110341  0.52466140     0.87100
H950        H  0.82145024  0.64720225  0.50214973    -0.07100
O951        O  0.79860022  0.62080069  0.46967112    -0.76100
Mg952      Mg  0.84451374  0.60063235  0.55379663     1.58000
H953        H  0.76950231  0.60617458  0.48215904    -0.07100
C954        C  0.78990443  0.51200325  0.53458140     0.92000
O955        O  0.84868592  0.54049289  0.56939306    -0.83400
C956        C  0.85762010  0.55378990  0.58399668     0.92100
O957        O  0.77334136  0.55780561  0.44117583    -0.83300
Mg958      Mg  0.83750566  0.62385817  0.45924887     1.58200
O959        O  0.80292948  0.52388644  0.54705867    -0.81700
O960        O  0.89149402  0.63923137  0.47920312    -0.83400
O961        O  0.75475335  0.45623927  0.57198013    -0.89000
C962        C  0.72891773  0.39768631  0.54042983     0.87100
Mg963      Mg  0.78887874  0.45840305  0.58548540     1.58100
O964        O  0.70744825  0.41660381  0.59461750    -0.88700
O965        O  0.71894340  0.46555457  0.57470609    -0.76000
C966        C  0.79659188  0.35590160  0.63169907     0.92100
O967        O  0.78722257  0.42542466  0.53706030    -0.75800
O968        O  0.81065925  0.36894755  0.62148238    -0.83300
Mg969      Mg  0.75412462  0.44553635  0.53654088     1.58000
C970        C  0.70370536  0.36899735  0.64526026     0.92000
O971        O  0.72411202  0.46741959  0.52933131    -0.81600
H972        H  0.69979009  0.44146083  0.61733148    -0.06900
C973        C  0.75525580  0.36779158  0.58475393     0.87000
O974        O  0.77930824  0.44806968  0.62124784    -0.76100
O975        O  0.73298200  0.41616860  0.55065406    -0.88900
O976        O  0.69391745  0.37551451  0.62704480    -0.81700
C977        C  0.66526676  0.38971717  0.55928075     0.92200
C978        C  0.70980732  0.45885014  0.51593137     0.92000
Mg979      Mg  0.75086821  0.39020025  0.63095882     1.58000
O980        O  0.77587770  0.36133812  0.63474476    -0.81600
O981        O  0.72449604  0.41979705  0.62828220    -0.75900
O982        O  0.67830536  0.40390901  0.54948460    -0.81700
O983        O  0.77169924  0.47735354  0.52811782    -0.83400
O984        O  0.83069664  0.42172941  0.61147500    -0.81700
C985        C  0.71005701  0.42665095  0.61356932     0.86400
O986        O  0.77611388  0.41152139  0.61844828    -0.88900
O987        O  0.74259048  0.37830511  0.59801417    -0.89000
O988        O  0.77597912  0.37334324  0.58144643    -0.76000
Mg989      Mg  0.70029019  0.43319884  0.56136636     1.58000
O990        O  0.67010494  0.38099035  0.57842734    -0.83400
H991        H  0.74487453  0.48610436  0.58510080    -0.07100
O992        O  0.79375663  0.42408272  0.57322842    -0.88700
H993        H  0.81551281  0.41098538  0.55054262    -0.07000
H994        H  0.77483698  0.42742616  0.64842993    -0.07100
C995        C  0.79973337  0.41994705  0.55360260     0.86400
C996        C  0.73993714  0.46995157  0.57782444     0.87000
C997        C  0.77725112  0.42874403  0.63023822     0.87100
H998        H  0.74822989  0.35384707  0.57503163    -0.07100
O999        O  0.71906618  0.38147776  0.55103646    -0.76100
Mg1000     Mg  0.80206839  0.39816483  0.59702755     1.58000
H1001       H  0.73354742  0.39570736  0.52270427    -0.07100
C1002       C  0.78704061  0.48770872  0.53908816     0.92000
O1003       O  0.82519270  0.45733898  0.59854450    -0.83400
C1004       C  0.83728048  0.44235286  0.60871360     0.92100
O1005       O  0.69506937  0.44563755  0.52431878    -0.83300
Mg1006     Mg  0.70712990  0.37929853  0.58949675     1.58200
O1007       O  0.79975777  0.47752656  0.55343495    -0.81700
O1008       O  0.72511176  0.36807663  0.64692429    -0.83400
O1009       O  0.34447574  0.76085473  0.62693390    -0.89000
C1010       C  0.37851409  0.72983154  0.67838954     0.87100
Mg1011     Mg  0.33573038  0.79632726  0.62785641     1.58100
O1012       O  0.32188061  0.71165048  0.67669534    -0.88700
O1013       O  0.32745497  0.72740626  0.62513434    -0.76000
C1014       C  0.26201165  0.79598369  0.70608939     0.92100
O1015       O  0.37640159  0.78122417  0.66640786    -0.75800
O1016       O  0.27197697  0.81065016  0.69394000    -0.83300
Mg1017     Mg  0.37798039  0.75322230  0.63789845     1.58000
C1018       C  0.28923873  0.71803219  0.74060547     0.92000
O1019       O  0.38104829  0.72638473  0.61004517    -0.81600
H1020       H  0.30004644  0.68788247  0.66593087    -0.06900
C1021       C  0.32500662  0.76707621  0.72056534     0.87000
O1022       O  0.29730330  0.78376658  0.63141836    -0.76100
O1023       O  0.36654048  0.72920277  0.66124365    -0.88900
O1024       O  0.30412675  0.70611348  0.73022986    -0.81700
C1025       C  0.35938204  0.66936822  0.69471821     0.92200
C1026       C  0.37725574  0.70538193  0.60637152     0.92000
Mg1027     Mg  0.28390378  0.75032251  0.69734376     1.58000
O1028       O  0.27421563  0.78171765  0.71652505    -0.81600
O1029       O  0.28552058  0.71619548  0.67926365    -0.75900
O1030       O  0.36063207  0.67519738  0.67377179    -0.81700
O1031       O  0.39234072  0.77802271  0.61365591    -0.83400
O1032       O  0.29563673  0.82417396  0.65145481    -0.81700
C1033       C  0.30251704  0.70432640  0.67379345     0.86400
O1034       O  0.29701731  0.77074825  0.66660976    -0.88900
O1035       O  0.31964830  0.75157478  0.70744527    -0.89000
O1036       O  0.32164532  0.78775123  0.71514693    -0.76000
Mg1037     Mg  0.34449240  0.70261870  0.65025586     1.58000
O1038       O  0.34989017  0.68190554  0.70986147    -0.83400
H1039       H  0.31997158  0.75390533  0.60439005    -0.07100
O1040       O  0.34140273  0.79531362  0.66495564    -0.88700
H1041       H  0.36513529  0.80642496  0.68747765    -0.07000
H1042       H  0.26915931  0.76924933  0.64607948    -0.07100
C1043       C  0.36115113  0.79494464  0.67364517     0.86400
C1044       C  0.33052802  0.74768245  0.61809231     0.87000
C1045       C  0.28682496  0.77415176  0.64794150     0.87100
H1046       H  0.33208526  0.76301958  0.73704027    -0.07100
O1047       O  0.36986615  0.72885452  0.69800103    -0.76100
Mg1048     Mg  0.30848560  0.80428040  0.68176331     1.58000
H1049       H  0.39655674  0.73303367  0.67663077    -0.07100
C1050       C  0.39129760  0.79941449  0.61542492     0.92000
O1051       O  0.32476651  0.83395698  0.62981560    -0.83400
C1052       C  0.30570039  0.83856050  0.63893761     0.92100
O1053       O  0.36710487  0.69270618  0.62070819    -0.83300
Mg1054     Mg  0.33507028  0.71800291  0.71016074     1.58200
O1055       O  0.37352361  0.80937401  0.62303078    -0.81700
O1056       O  0.27786485  0.73345061  0.73064357    -0.83400
O1057       O  0.14973733  0.87013805  0.74559759    -0.89000
C1058       C  0.11814361  0.81581648  0.77456227     0.87100
Mg1059     Mg  0.15884285  0.87054087  0.71062034     1.58100
O1060       O  0.17520321  0.82215785  0.79222513    -0.88700
O1061       O  0.16657378  0.87366982  0.77887493    -0.76000
C1062       C  0.23669082  0.79530364  0.70692738     0.92100
O1063       O  0.11960622  0.83053418  0.72351472    -0.75800
O1064       O  0.22539310  0.80724613  0.69303159    -0.83300
Mg1065     Mg  0.11641304  0.85820454  0.75238933     1.58000
C1066       C  0.20757607  0.75859318  0.78749812     0.92000
O1067       O  0.11281809  0.88517870  0.78025467    -0.81600
H1068       H  0.19679826  0.83316810  0.81608769    -0.06900
C1069       C  0.17421923  0.77786090  0.73622207     0.87000
O1070       O  0.19742323  0.86782896  0.72301907    -0.76100
O1071       O  0.12919380  0.83409117  0.77646307    -0.88900
O1072       O  0.19617947  0.77279540  0.79908298    -0.81700
C1073       C  0.14091076  0.80115725  0.83500599     0.92200
C1074       C  0.11689141  0.88924199  0.80117670     0.92000
Mg1075     Mg  0.21489202  0.80077326  0.75410112     1.58000
O1076       O  0.22595506  0.78357519  0.72155710    -0.81600
O1077       O  0.21167330  0.81866266  0.78848413    -0.75900
O1078       O  0.13847474  0.82244721  0.83136490    -0.81700
O1079       O  0.10115783  0.88250667  0.72823768    -0.83400
O1080       O  0.20029734  0.84958114  0.67903793    -0.81700
C1081       C  0.19450621  0.82502475  0.79974895     0.86400
O1082       O  0.20101564  0.83196682  0.73377092    -0.88900
O1083       O  0.17932199  0.79084541  0.75190305    -0.89000
O1084       O  0.17711521  0.78385623  0.71563534    -0.76000
Mg1085     Mg  0.15185604  0.84713044  0.80348250     1.58000
O1086       O  0.14969310  0.78764672  0.82048736    -0.83400
H1087       H  0.17195782  0.89499015  0.75232100    -0.07100
O1088       O  0.15495241  0.83330236  0.71017645    -0.88700
H1089       H  0.13205280  0.81039050  0.69807742    -0.07000
H1090       H  0.22689345  0.85484014  0.73634031    -0.07100
C1091       C  0.13540743  0.82405033  0.70995872     0.86400
C1092       C  0.16275836  0.88037151  0.75865297     0.87000
C1093       C  0.20940809  0.85169537  0.73147625     0.87100
H1094       H  0.16779890  0.76105096  0.74002820    -0.07100
O1095       O  0.12823425  0.79689867  0.77401084    -0.76100
Mg1096     Mg  0.18875649  0.81815435  0.69983438     1.58000
H1097       H  0.10002114  0.81652433  0.77132131    -0.07100
C1098       C  0.10278135  0.88141361  0.70683227     0.92000
O1099       O  0.16972278  0.87092255  0.67374619    -0.83400
C1100       C  0.18896406  0.86368991  0.66717464     0.92100
O1101       O  0.12766703  0.87538824  0.81394222    -0.83300
Mg1102     Mg  0.16390486  0.78796201  0.78542656     1.58200
O1103       O  0.12099869  0.87451515  0.69714628    -0.81700
O1104       O  0.22014671  0.76564993  0.77122481    -0.83400
O1105       O  0.24360116  0.65306467  0.87311120    -0.89000
C1106       C  0.27730232  0.62197483  0.82032875     0.87100
Mg1107     Mg  0.20764084  0.66077624  0.87405473     1.58100
O1108       O  0.29263785  0.67935412  0.82733296    -0.88700
O1109       O  0.27722795  0.66921018  0.87826988    -0.76000
C1110       C  0.20607385  0.73397223  0.79289896     0.92100
O1111       O  0.22433427  0.62327080  0.83210796    -0.75800
O1112       O  0.19131567  0.72601743  0.80649006    -0.83300
Mg1113     Mg  0.25189599  0.62032053  0.86045940     1.58000
C1114       C  0.28443399  0.71362872  0.76460870     0.92000
O1115       O  0.27867179  0.61575956  0.88809209    -0.81600
H1116       H  0.31249342  0.70333905  0.84104552    -0.06900
C1117       C  0.23694309  0.67324820  0.78261311     0.87000
O1118       O  0.21784788  0.69950013  0.87119557    -0.76100
O1119       O  0.27622423  0.63433572  0.83772156    -0.88900
O1120       O  0.29724445  0.70051052  0.77605840    -0.81700
C1121       C  0.33589299  0.64594587  0.80591584     0.92200
C1122       C  0.29955631  0.61857157  0.89314041     0.92000
Mg1123     Mg  0.25042285  0.71498317  0.80606476     1.58000
O1124       O  0.22009213  0.72025528  0.78444932    -0.81600
O1125       O  0.28358186  0.71512342  0.82632593    -0.75900
O1126       O  0.33173695  0.64254802  0.82706924    -0.81700
O1127       O  0.22788833  0.60379229  0.88312197    -0.83400
O1128       O  0.17333378  0.69956426  0.84976946    -0.81700
C1129       C  0.29709265  0.69932308  0.83181877     0.86400
O1130       O  0.22967671  0.70061817  0.83580703    -0.88900
O1131       O  0.25187818  0.67979677  0.79588117    -0.89000
O1132       O  0.21592399  0.67571411  0.78743800    -0.76000
Mg1133     Mg  0.30337381  0.65535189  0.85223078     1.58000
O1134       O  0.32192170  0.65573088  0.79254674    -0.83400
H1135       H  0.24970594  0.67508022  0.89832941    -0.07100
O1136       O  0.20500846  0.65564993  0.83658157    -0.88700
H1137       H  0.19864289  0.63318364  0.81117025    -0.07000
H1138       H  0.23013467  0.72849048  0.85632995    -0.07100
C1139       C  0.20885628  0.63721613  0.82594161     0.86400
C1140       C  0.25649329  0.66587642  0.88391184     0.87000
C1141       C  0.22620953  0.71058983  0.85452127     0.87100
H1142       H  0.24177379  0.66589468  0.76645008    -0.07100
O1143       O  0.27787332  0.63098184  0.80094795    -0.76100
Mg1144     Mg  0.19681272  0.68891532  0.81981403     1.58000
H1145       H  0.27578477  0.60369830  0.82194755    -0.07100
C1146       C  0.20652811  0.60494530  0.88480153     0.92000
O1147       O  0.17047486  0.67078360  0.87437643    -0.83400
C1148       C  0.16254389  0.68870355  0.86524756     0.92100
O1149       O  0.31320007  0.62961313  0.88025349    -0.83300
Mg1150     Mg  0.28629681  0.66768509  0.79281205     1.58200
O1151       O  0.19557083  0.62290232  0.87951110    -0.81700
O1152       O  0.26777227  0.72374681  0.77376048    -0.83400
O1153       O  0.11902711  0.90113426  0.25656462    -0.89000
C1154       C  0.06781616  0.86951972  0.22050514     0.87100
Mg1155     Mg  0.11913173  0.90857686  0.29221687     1.58100
O1156       O  0.07268977  0.92729228  0.20684408    -0.88700
O1157       O  0.12380822  0.91901337  0.22379499    -0.76000
C1158       C  0.03739259  0.97973192  0.29411466     0.92100
O1159       O  0.07808962  0.87003732  0.27439819    -0.75800
O1160       O  0.05075037  0.97120466  0.30862064    -0.83300
Mg1161     Mg  0.10709544  0.86832719  0.24745928     1.58000
C1162       C  0.00792208  0.95781619  0.21463561     0.92000
O1163       O  0.13565220  0.86512874  0.22124436    -0.81600
H1164       H  0.08489428  0.95180085  0.18663247    -0.06900
C1165       C  0.02733802  0.91874526  0.26148307     0.87000
O1166       O  0.11480317  0.94734825  0.28195576    -0.76100
O1167       O  0.08448093  0.88267082  0.22313022    -0.88900
O1168       O  0.02185418  0.94762477  0.20150564    -0.81700
C1169       C  0.05533808  0.89358653  0.16134086     0.92200
C1170       C  0.14132106  0.86904314  0.20068371     0.92000
Mg1171     Mg  0.04895217  0.96182800  0.24856157     1.58000
O1172       O  0.02835579  0.96650327  0.27987787    -0.81600
O1173       O  0.06896824  0.96303403  0.21517755    -0.75900
O1174       O  0.07599413  0.89116024  0.16783678    -0.81700
O1175       O  0.12924030  0.85148120  0.27189941    -0.83400
O1176       O  0.09410220  0.94668301  0.32588171    -0.81700
C1177       C  0.07586729  0.94742662  0.20206347     0.86400
O1178       O  0.07964421  0.94782625  0.26920637    -0.88900
O1179       O  0.04006825  0.92596497  0.24632537    -0.89000
O1180       O  0.03241889  0.92118417  0.28248351    -0.76000
Mg1181     Mg  0.09918926  0.90464660  0.19686239     1.58000
O1182       O  0.03999970  0.90287312  0.17380940    -0.83400
H1183       H  0.14334480  0.92442849  0.25168932    -0.07100
O1184       O  0.08186486  0.90221789  0.29414203    -0.88700
H1185       H  0.05669956  0.87931881  0.30000272    -0.07000
H1186       H  0.09967995  0.97606237  0.26933840    -0.07100
C1187       C  0.07154639  0.88367650  0.28999340     0.86400
C1188       C  0.12943253  0.91489480  0.24433934     0.87000
C1189       C  0.09811579  0.95811673  0.27314240     0.87100
H1190       H  0.01134788  0.91087839  0.25689821    -0.07100
O1191       O  0.04806634  0.87756740  0.21854039    -0.76100
Mg1192     Mg  0.06441566  0.93495363  0.30222746     1.58000
H1193       H  0.07024218  0.85130855  0.22167353    -0.07100
C1194       C  0.13103382  0.85280275  0.29325732     0.92000
O1195       O  0.11903939  0.91833862  0.32922506    -0.83400
C1196       C  0.11008882  0.93655389  0.33659580     0.92100
O1197       O  0.12862455  0.88044966  0.18724716    -0.83300
Mg1198     Mg  0.03833970  0.91415537  0.21095831     1.58200
O1199       O  0.12569358  0.87081664  0.30413820    -0.81700
O1200       O  0.01533313  0.96951357  0.23120569    -0.83400
O1201       O  0.90176720  0.99168915  0.13106989    -0.89000
C1202       C  0.86786835  0.02572377  0.18110394     0.87100
Mg1203     Mg  0.91119732  0.95656641  0.13131811     1.58100
O1204       O  0.92555009  0.04057392  0.17797297    -0.88700
O1205       O  0.91792952  0.02513715  0.12629741    -0.76000
C1206       C  0.98309363  0.95578117  0.21113580     0.92100
O1207       O  0.87161339  0.97264982  0.17181627    -0.75800
O1208       O  0.97480554  0.94075606  0.19824044    -0.83300
Mg1209     Mg  0.86848667  0.99943854  0.14259888     1.58000
C1210       C  0.95525216  0.03382113  0.24415460     0.92000
O1211       O  0.86427640  0.02507611  0.11402408    -0.81600
H1212       H  0.94872918  0.06321260  0.16747355    -0.06900
C1213       C  0.92060458  0.98440278  0.22321515     0.87000
O1214       O  0.94942506  0.96940259  0.13517052    -0.76100
O1215       O  0.88023531  0.02480076  0.16424737    -0.88900
O1216       O  0.94430024  0.04608762  0.23010635    -0.81700
C1217       C  0.89240252  0.08478892  0.19667727     0.92200
C1218       C  0.86733593  0.04584220  0.10870421     0.92000
Mg1219     Mg  0.96295033  0.00116159  0.20200857     1.58000
O1220       O  0.96947265  0.96923031  0.22082543    -0.81600
O1221       O  0.96175856  0.03539458  0.18327109    -0.75900
O1222       O  0.88903217  0.07999128  0.17562370    -0.81700
O1223       O  0.85302222  0.97350602  0.12022163    -0.83400
O1224       O  0.95142855  0.92691386  0.15500640    -0.81700
C1225       C  0.94534032  0.04719087  0.17584518     0.86400
O1226       O  0.95048721  0.98085216  0.17087856    -0.88900
O1227       O  0.92504242  0.99917473  0.20826977    -0.89000
O1228       O  0.92460397  0.96352740  0.21910151    -0.76000
Mg1229     Mg  0.90238641  0.05063030  0.15156565     1.58000
O1230       O  0.90084000  0.07067420  0.21078827    -0.83400
H1231       H  0.92440816  0.99773249  0.10638194    -0.07100
O1232       O  0.90535781  0.95556283  0.16853875    -0.88700
H1233       H  0.88245012  0.94763602  0.19316224    -0.07000
H1234       H  0.97785596  0.98332298  0.14976068    -0.07100
C1235       C  0.88630390  0.95807919  0.17849986     0.86400
C1236       C  0.91476394  0.00452262  0.12051509     0.87000
C1237       C  0.96025447  0.97827156  0.15184656     0.87100
H1238       H  0.91377221  0.98950603  0.23955213    -0.07100
O1239       O  0.87625080  0.02655204  0.20079243    -0.76100
Mg1240     Mg  0.93838906  0.94703911  0.18545425     1.58000
H1241       H  0.84965994  0.02398371  0.17908287    -0.07100
C1242       C  0.85557814  0.95217320  0.11991955     0.92000
O1243       O  0.92284128  0.91964035  0.13147340    -0.83400
C1244       C  0.94213051  0.91472288  0.13978429     0.92100
O1245       O  0.87797373  0.05971132  0.12176270    -0.83300
Mg1246     Mg  0.91203006  0.03493441  0.21181825     1.58200
O1247       O  0.87412623  0.94272919  0.12601386    -0.81700
O1248       O  0.96743334  0.01752703  0.23689449    -0.83400
O1249       O  0.99676681  0.12084029  0.34489605    -0.89000
C1250       C  0.02726319  0.06918330  0.38000326     0.87100
Mg1251     Mg  0.96100556  0.12187470  0.33740373     1.58100
O1252       O  0.04211240  0.07095689  0.32165950    -0.88700
O1253       O  0.02990677  0.12352840  0.32756485    -0.76000
C1254       C  0.95406968  0.03853623  0.26891380     0.92100
O1255       O  0.97534350  0.08407255  0.37839585    -0.75800
O1256       O  0.93981123  0.05242617  0.27709231    -0.83300
Mg1257     Mg  0.00449340  0.11140969  0.37870173     1.58000
C1258       C  0.03285961  0.00450119  0.29349980     0.92000
O1259       O  0.03282018  0.13782418  0.38139261    -0.81600
H1260       H  0.06397532  0.08027991  0.29726976    -0.06900
C1261       C  0.98501504  0.02841242  0.33049423     0.87000
O1262       O  0.97143075  0.11592907  0.29878464    -0.76100
O1263       O  0.02792971  0.08620296  0.36707255    -0.88900
O1264       O  0.04570662  0.01811900  0.30439249    -0.81700
C1265       C  0.08590993  0.05146226  0.35520461     0.92200
C1266       C  0.05381285  0.14138915  0.37735698     0.92000
Mg1267     Mg  0.00042118  0.04728277  0.28704170     1.58000
O1268       O  0.96770094  0.02909850  0.28251144    -0.81600
O1269       O  0.03509128  0.06506314  0.28594249    -0.75900
O1270       O  0.08265102  0.07291637  0.35706392    -0.81700
O1271       O  0.98173420  0.13762885  0.39150606    -0.83400
O1272       O  0.92666072  0.09773293  0.29964508    -0.81700
C1273       C  0.04788287  0.07244529  0.30158134     0.86400
O1274       O  0.98144833  0.07977993  0.29892199    -0.88900
O1275       O  0.00064518  0.04044094  0.32319464    -0.89000
O1276       O  0.96431530  0.03423945  0.32768317    -0.76000
Mg1277     Mg  0.05464702  0.09754387  0.34319546     1.58000
O1278       O  0.07082751  0.03782508  0.34765491    -0.83400
H1279       H  0.00317821  0.14439518  0.32122510    -0.07100
O1280       O  0.95867365  0.08517447  0.34444063    -0.88700
H1281       H  0.94901945  0.06333869  0.36940776    -0.07000
H1282       H  0.98315440  0.09936370  0.27042829    -0.07100
C1283       C  0.96043984  0.07685145  0.36429054     0.86400
C1284       C  0.00964415  0.13033348  0.33114017     0.87000
C1285       C  0.97904018  0.09838272  0.28835767     0.87100
H1286       H  0.98893007  0.01246417  0.33875684    -0.07100
O1287       O  0.02647788  0.04941468  0.37178633    -0.76100
Mg1288     Mg  0.94767853  0.06710681  0.31274420     1.58000
H1289       H  0.02540242  0.07162499  0.39816714    -0.07100
C1290       C  0.96035549  0.13617798  0.39216678     0.92000
O1291       O  0.92377996  0.12263767  0.32794651    -0.83400
C1292       C  0.91604870  0.11362968  0.30992704     0.92100
O1293       O  0.06606518  0.12733540  0.36608145    -0.83300
Mg1294     Mg  0.03498498  0.03768863  0.33601107     1.58200
O1295       O  0.94908913  0.12856438  0.37527407    -0.81700
O1296       O  0.01610215  0.01210442  0.28214886    -0.83400
O1297       O  0.84571001  0.99775006  0.61915333    -0.89000
C1298       C  0.87764183  0.02795848  0.56634408     0.87100
Mg1299     Mg  0.83712311  0.96246603  0.62021685     1.58100
O1300       O  0.82106918  0.04442726  0.57116058    -0.88700
O1301       O  0.82893680  0.03103474  0.62258440    -0.76000
C1302       C  0.75942851  0.95896396  0.54482568     0.92100
O1303       O  0.87535080  0.97721798  0.57857902    -0.75800
O1304       O  0.77065710  0.94518402  0.55694046    -0.83300
Mg1305     Mg  0.87859337  0.00547917  0.60657457     1.58000
C1306       C  0.79021897  0.03867298  0.50713609     0.92000
O1307       O  0.88282323  0.03215597  0.63411702    -0.81600
H1308       H  0.79932325  0.06833316  0.58181932    -0.06900
C1309       C  0.82237252  0.98806945  0.52735228     0.87000
O1310       O  0.79841576  0.97442856  0.61693545    -0.76100
O1311       O  0.86636300  0.02922242  0.58397878    -0.88900
O1312       O  0.80058835  0.05065326  0.52174970    -0.81700
C1313       C  0.85624928  0.08677133  0.55042096     0.92200
C1314       C  0.87903840  0.05299873  0.63841716     0.92000
Mg1315     Mg  0.78159662  0.00605155  0.54969876     1.58000
O1316       O  0.77025710  0.97335960  0.53286898    -0.81600
O1317       O  0.78465135  0.04062218  0.56733989    -0.75900
O1318       O  0.85858059  0.08286438  0.57167587    -0.81700
O1319       O  0.89437503  0.98168782  0.62989550    -0.83400
O1320       O  0.79607593  0.93027896  0.59896440    -0.81700
C1321       C  0.80172816  0.05194684  0.57381018     0.86400
O1322       O  0.79535404  0.98573363  0.58124144    -0.88900
O1323       O  0.81734666  0.00382207  0.54028660    -0.89000
O1324       O  0.81920491  0.96752086  0.53335522    -0.76000
Mg1325     Mg  0.84438961  0.05533580  0.59624533     1.58000
O1326       O  0.84697661  0.07266501  0.53678652    -0.83400
H1327       H  0.82300141  0.00438426  0.64362609    -0.07100
O1328       O  0.84142997  0.96076637  0.58285849    -0.88700
H1329       H  0.86396901  0.95145393  0.55835616    -0.07000
H1330       H  0.76905008  0.98776450  0.60371203    -0.07100
C1331       C  0.86039153  0.96258653  0.57258358     0.86400
C1332       C  0.83249878  0.01075931  0.62920883     0.87000
C1333       C  0.78663340  0.98310078  0.60077935     0.87100
H1334       H  0.82888835  0.99178129  0.51054777    -0.07100
O1335       O  0.86812034  0.02678065  0.54715935    -0.76100
Mg1336     Mg  0.80741931  0.95153057  0.56761560     1.58000
H1337       H  0.89584389  0.02548392  0.56749960    -0.07100
C1338       C  0.89315910  0.96037042  0.63154694     0.92000
O1339       O  0.82646694  0.92543910  0.62077001    -0.83400
C1340       C  0.80755192  0.91843848  0.61302387     0.92100
O1341       O  0.86828069  0.06592619  0.62473607    -0.83300
Mg1342     Mg  0.83273215  0.03751765  0.53724581     1.58200
O1343       O  0.87519036  0.94949813  0.62583654    -0.81700
O1344       O  0.77710840  0.02271677  0.51395471    -0.83400
O1345       O  0.75768181  0.12223646  0.40086349    -0.89000
C1346       C  0.72465644  0.06943590  0.36899616     0.87100
Mg1347     Mg  0.79345752  0.12377407  0.40912266     1.58100
O1348       O  0.70884607  0.07605041  0.42625382    -0.88700
O1349       O  0.72383507  0.12718001  0.41655024    -0.76000
C1350       C  0.79375651  0.04302993  0.48241544     0.92100
O1351       O  0.77760457  0.08142894  0.37153453    -0.75800
O1352       O  0.80880221  0.05664127  0.47504898    -0.83300
Mg1353     Mg  0.74984017  0.10951455  0.36805133     1.58000
C1354       C  0.71655091  0.01336765  0.46065036     0.92000
O1355       O  0.72290152  0.13691650  0.36318091    -0.81600
H1356       H  0.68807186  0.08908372  0.44986305    -0.06900
C1357       C  0.76513563  0.03191771  0.42068351     0.87000
O1358       O  0.78266616  0.12050446  0.44767785    -0.76100
O1359       O  0.72547237  0.08665710  0.38159781    -0.88900
O1360       O  0.70422253  0.02444924  0.44679522    -0.81700
C1361       C  0.66567756  0.05484072  0.39330350     0.92200
C1362       C  0.70197302  0.14188760  0.36585174     0.92000
Mg1363     Mg  0.75037004  0.05501068  0.46223661     1.58000
O1364       O  0.78087199  0.03406806  0.46796370    -0.81600
O1365       O  0.71693056  0.07471451  0.46218445    -0.75900
O1366       O  0.66967021  0.07598006  0.38978241    -0.81700
O1367       O  0.77373220  0.13230218  0.35184516    -0.83400
O1368       O  0.82728781  0.10003611  0.44850671    -0.81700
C1369       C  0.70374672  0.08019002  0.44613622     0.86400
O1370       O  0.77092224  0.08513051  0.44818859    -0.88900
O1371       O  0.74982367  0.04490177  0.42697177    -0.89000
O1372       O  0.78601693  0.03705023  0.42369307    -0.76000
Mg1373     Mg  0.69807126  0.10101208  0.40243106     1.58000
O1374       O  0.68007183  0.04145671  0.40240735    -0.83400
H1375       H  0.75109147  0.14745916  0.42272782    -0.07100
O1376       O  0.79718863  0.08631241  0.40376253    -0.88700
H1377       H  0.80335434  0.06062988  0.38155029    -0.07000
H1378       H  0.76982803  0.10532961  0.47628225    -0.07100
C1379       C  0.79316315  0.07544894  0.38547969     0.86400
C1380       C  0.74454640  0.13297603  0.41347166     0.87000
C1381       C  0.77410373  0.10372720  0.45843177     0.87100
H1382       H  0.76075622  0.01573190  0.41312308    -0.07100
O1383       O  0.72432631  0.04996273  0.37777402    -0.76100
Mg1384     Mg  0.80440611  0.06966880  0.43745851     1.58000
H1385       H  0.72625808  0.07130492  0.35074129    -0.07100
C1386       C  0.79492784  0.13506585  0.35341830     0.92000
O1387       O  0.83043521  0.12465158  0.41972493    -0.83400
C1388       C  0.83814333  0.11558700  0.43778045     0.92100
O1389       O  0.68827916  0.12895074  0.37674760    -0.83300
Mg1390     Mg  0.71560546  0.04166766  0.41437623     1.58200
O1391       O  0.80586650  0.13009175  0.37148316    -0.81700
O1392       O  0.73324200  0.02253715  0.47067499    -0.83400
O1393       O  0.65425191  0.87758155  0.50903048    -0.89000
C1394       C  0.62065360  0.92943318  0.47635517     0.87100
Mg1395     Mg  0.66169505  0.87837099  0.54495928     1.58100
O1396       O  0.67819878  0.92629418  0.45963047    -0.88700
O1397       O  0.67196135  0.87490438  0.47590075    -0.76000
C1398       C  0.73407980  0.95822759  0.54555217     0.92100
O1399       O  0.62101523  0.91637375  0.52871003    -0.75800
O1400       O  0.72399897  0.94641995  0.56043443    -0.83300
Mg1401     Mg  0.62087114  0.88806502  0.50058282     1.58000
C1402       C  0.71098318  0.98979097  0.46598893     0.92000
O1403       O  0.61820832  0.86048042  0.47329444    -0.81600
H1404       H  0.70133494  0.91466348  0.43754247    -0.06900
C1405       C  0.67223646  0.97107714  0.51444668     0.87000
O1406       O  0.70037145  0.88261654  0.53395561    -0.76100
O1407       O  0.63363238  0.91246512  0.47698703    -0.88900
O1408       O  0.69619509  0.97934396  0.45404680    -0.81700
C1409       C  0.64203700  0.94394295  0.41652064     0.92200
C1410       C  0.62228448  0.85668704  0.45236469     0.92000
Mg1411     Mg  0.71428530  0.94776708  0.49988486     1.58000
O1412       O  0.72194666  0.96808272  0.53087041    -0.81600
O1413       O  0.71426006  0.92859375  0.46632649    -0.75900
O1414       O  0.64079720  0.92300686  0.42221320    -0.81700
O1415       O  0.60715824  0.86315041  0.52391144    -0.83400
O1416       O  0.70011661  0.90410729  0.57484358    -0.81700
C1417       C  0.69795037  0.92302519  0.45358183     0.86400
O1418       O  0.70041396  0.91762094  0.52059361    -0.88900
O1419       O  0.67858222  0.95783211  0.49941487    -0.89000
O1420       O  0.67460071  0.96603337  0.53536133    -0.76000
Mg1421     Mg  0.65607605  0.89981660  0.44998504     1.58000
O1422       O  0.65114782  0.95914627  0.42919126    -0.83400
H1423       H  0.67868485  0.85467997  0.50302535    -0.07100
O1424       O  0.65536901  0.91557510  0.54428900    -0.88700
H1425       H  0.63082989  0.93781981  0.55415928    -0.07000
H1426       H  0.72877602  0.89774737  0.52052237    -0.07100
C1427       C  0.63554106  0.92397460  0.54296733     0.86400
C1428       C  0.66839897  0.86834905  0.49630042     0.87000
C1429       C  0.71087547  0.89925579  0.52464966     0.87100
H1430       H  0.66504333  0.98733891  0.50978221    -0.07100
O1431       O  0.62887069  0.94916354  0.47509676    -0.76100
Mg1432     Mg  0.68771285  0.93341591  0.55339612     1.58000
H1433       H  0.60251197  0.92716722  0.47870130    -0.07100
C1434       C  0.60649844  0.86444013  0.54529114     0.92000
O1435       O  0.67203761  0.88010082  0.58272268    -0.83400
C1436       C  0.69079163  0.88964211  0.58786587     0.92100
O1437       O  0.63318541  0.87065191  0.43991995    -0.83300
Mg1438     Mg  0.66466255  0.96000507  0.46535107     1.58200
O1439       O  0.62329080  0.87225933  0.55672571    -0.81700
O1440       O  0.72148604  0.98028985  0.48225860    -0.83400
O1441       O  0.62022536  0.84644749  0.99339292    -0.89000
C1442       C  0.56683789  0.87832236  0.02639620     0.87100
Mg1443     Mg  0.62027432  0.83764364  0.95794838     1.58100
O1444       O  0.57301896  0.82175648  0.04358036    -0.88700
O1445       O  0.62419012  0.83000818  0.02699219    -0.76000
C1446       C  0.54381320  0.76166128  0.95771992     0.92100
O1447       O  0.57914417  0.87700775  0.97341761    -0.75800
O1448       O  0.55518166  0.77301123  0.94345442    -0.83300
Mg1449     Mg  0.60740736  0.87933258  0.00116598     1.58000
C1450       C  0.50917325  0.78975878  0.03831097     0.92000
O1451       O  0.63523048  0.88371867  0.02754910    -0.81600
H1452       H  0.58492455  0.79946628  0.06631955    -0.06900
C1453       C  0.52755703  0.82438821  0.98859396     0.87000
O1454       O  0.61661862  0.79914404  0.97027626    -0.76100
O1455       O  0.58415038  0.86577102  0.02541723    -0.88900
O1456       O  0.52345497  0.80047193  0.05051220    -0.81700
C1457       C  0.55419659  0.85713942  0.08707775     0.92200
C1458       C  0.64053724  0.88079977  0.04829595     0.92000
Mg1459     Mg  0.55089093  0.78300402  0.00471971     1.58000
O1460       O  0.53255652  0.77239156  0.97271136    -0.81600
O1461       O  0.56980039  0.78542781  0.03863131    -0.75900
O1462       O  0.57497066  0.85934679  0.08088295    -0.81700
O1463       O  0.63047306  0.89484810  0.97728527    -0.83400
O1464       O  0.59644083  0.79756511  0.92834511    -0.81700
C1465       C  0.57628382  0.80224591  0.05032829     0.86400
O1466       O  0.58149048  0.79734644  0.98356013    -0.88900
O1467       O  0.54066785  0.81879867  0.00402653    -0.89000
O1468       O  0.53309780  0.82164604  0.96780648    -0.76000
Mg1469     Mg  0.59880959  0.84518444  0.05287431     1.58000
O1470       O  0.53913763  0.84738105  0.07470294    -0.83400
H1471       H  0.64444753  0.82346102  0.99980805    -0.07100
O1472       O  0.58279923  0.84277705  0.95798647    -0.88700
H1473       H  0.55882477  0.86544567  0.94783111    -0.07000
H1474       H  0.60307792  0.77030280  0.98442556    -0.07100
C1475       C  0.57291877  0.86190816  0.95912774     0.86400
C1476       C  0.63032467  0.83323734  0.00641443     0.87000
C1477       C  0.60053015  0.78794959  0.97985371     0.87100
H1478       H  0.51095942  0.83114293  0.99278815    -0.07100
O1479       O  0.54731064  0.86961908  0.02808476    -0.76100
Mg1480     Mg  0.56640759  0.80945648  0.95001929     1.58000
H1481       H  0.56859863  0.89648207  0.02392249    -0.07100
C1482       C  0.63238889  0.89350337  0.95598821     0.92000
O1483       O  0.61958444  0.82632145  0.92047862    -0.83400
C1484       C  0.61082904  0.80721279  0.91537519     0.92100
O1485       O  0.62760313  0.87007614  0.06206811    -0.83300
Mg1486     Mg  0.53843180  0.83349683  0.03843391     1.58200
O1487       O  0.62659422  0.87560582  0.94501016    -0.81700
O1488       O  0.51632709  0.77683597  0.02240545    -0.83400
O1489       O  0.40364622  0.75832966  0.12268530    -0.89000
C1490       C  0.37070329  0.72427814  0.07172339     0.87100
Mg1491     Mg  0.41155543  0.79417547  0.12193740     1.58100
O1492       O  0.42822389  0.70799745  0.07745796    -0.88700
O1493       O  0.41964437  0.72476042  0.12824792    -0.76000
C1494       C  0.48434870  0.79257151  0.04224519     0.92100
O1495       O  0.37240264  0.77722452  0.08254184    -0.75800
O1496       O  0.47634236  0.80813271  0.05474340    -0.83300
Mg1497     Mg  0.37028038  0.75030041  0.11186424     1.58000
C1498       C  0.46187029  0.71553271  0.01388339     0.92000
O1499       O  0.36646481  0.72418516  0.14018118    -0.81600
H1500       H  0.45175587  0.68727621  0.09060997    -0.06900
C1501       C  0.42292657  0.76247753  0.03129124     0.87000
O1502       O  0.45019482  0.78339716  0.11951249    -0.76100
O1503       O  0.38318933  0.72527018  0.08901603    -0.88900
O1504       O  0.44806234  0.70285478  0.02478757    -0.81700
C1505       C  0.39358396  0.66498904  0.05788872     0.92200
C1506       C  0.36914100  0.70334036  0.14535711     0.92000
Mg1507     Mg  0.46442083  0.74881006  0.05543854     1.58000
O1508       O  0.47038400  0.77882039  0.03377383    -0.81600
O1509       O  0.46423086  0.71582666  0.07576644    -0.75900
O1510       O  0.39075107  0.66950138  0.07906380    -0.81700
O1511       O  0.35539897  0.77503247  0.13534007    -0.83400
O1512       O  0.45037416  0.82492337  0.09659032    -0.81700
C1513       C  0.44810223  0.70282413  0.08150485     0.86400
O1514       O  0.45039933  0.76997909  0.08466960    -0.88900
O1515       O  0.42897740  0.74802340  0.04526979    -0.89000
O1516       O  0.42578978  0.78355683  0.03529479    -0.76000
Mg1517     Mg  0.40464529  0.69825334  0.10325139     1.58000
O1518       O  0.40328579  0.67861539  0.04404814    -0.83400
H1519       H  0.42633138  0.75270411  0.14740043    -0.07100
O1520       O  0.40615377  0.79437206  0.08457940    -0.88700
H1521       H  0.38265515  0.80187568  0.06043025    -0.07000
H1522       H  0.47870210  0.76996596  0.10461757    -0.07100
C1523       C  0.38691269  0.79164580  0.07512102     0.86400
C1524       C  0.41665971  0.74563731  0.13344544     0.87000
C1525       C  0.46082137  0.77410820  0.10300581     0.87100
H1526       H  0.41567620  0.75714197  0.01525329    -0.07100
O1527       O  0.37955634  0.72320712  0.05226422    -0.76100
Mg1528     Mg  0.43909895  0.80247081  0.06747540     1.58000
H1529       H  0.35246159  0.72623320  0.07347005    -0.07100
C1530       C  0.35619617  0.79634194  0.13325232     0.92000
O1531       O  0.42196236  0.83149873  0.12080808    -0.83400
C1532       C  0.44087742  0.83696090  0.11185011     0.92100
O1533       O  0.37961012  0.68941739  0.13228689    -0.83300
Mg1534     Mg  0.41593764  0.71403541  0.04315260     1.58200
O1535       O  0.37384137  0.80646213  0.12573229    -0.81700
O1536       O  0.47283476  0.73127366  0.02359848    -0.83400
O1537       O  0.50643928  0.65511000  0.87807521    -0.89000
C1538       C  0.47468529  0.62228426  0.93100827     0.87100
Mg1539     Mg  0.54235515  0.66251058  0.87790497     1.58100
O1540       O  0.45781194  0.67949342  0.92699705    -0.88700
O1541       O  0.47313092  0.67247038  0.87551388    -0.76000
C1542       C  0.54478010  0.73635541  0.95690174     0.92100
O1543       O  0.52696256  0.62304159  0.91728573    -0.75800
O1544       O  0.55959088  0.72647383  0.94477006    -0.83300
Mg1545     Mg  0.49837593  0.62187360  0.88946791     1.58000
C1546       C  0.46595021  0.71193021  0.98965486     0.92000
O1547       O  0.47076721  0.61865317  0.86229596    -0.81600
H1548       H  0.43606557  0.70269971  0.91499394    -0.06900
C1549       C  0.51381216  0.67463742  0.97047892     0.87000
O1550       O  0.53209277  0.70135537  0.88143341    -0.76100
O1551       O  0.47514936  0.63510904  0.91391293    -0.88900
O1552       O  0.45299746  0.69883963  0.97830295    -0.81700
C1553       C  0.41503158  0.64337602  0.94672170     0.92200
C1554       C  0.44981714  0.62259292  0.85848855     0.92000
Mg1555     Mg  0.49898613  0.71615026  0.94714532     1.58000
O1556       O  0.53032012  0.72407677  0.96697527    -0.81600
O1557       O  0.46517309  0.71553762  0.92834994    -0.75900
O1558       O  0.42048815  0.64191108  0.92567508    -0.81700
O1559       O  0.52137525  0.60706589  0.86473716    -0.83400
O1560       O  0.57548642  0.70138696  0.90221164    -0.81700
C1561       C  0.45211325  0.69926744  0.92329941     0.86400
O1562       O  0.51971907  0.70243153  0.91675499    -0.88900
O1563       O  0.49848876  0.68053782  0.95738148    -0.89000
O1564       O  0.53465258  0.67736067  0.96512919    -0.76000
Mg1565     Mg  0.44770492  0.65688883  0.90124775     1.58000
O1566       O  0.42780732  0.65295508  0.96154477    -0.83400
H1567       H  0.49998848  0.67903158  0.85478695    -0.07100
O1568       O  0.54304631  0.65717525  0.91519214    -0.88700
H1569       H  0.55279803  0.63323417  0.93807248    -0.07000
H1570       H  0.51951230  0.73029207  0.89622418    -0.07100
C1571       C  0.54150899  0.63764050  0.92422339     0.86400
C1572       C  0.49349687  0.66896923  0.86875320     0.87000
C1573       C  0.52341049  0.71239378  0.89804979     0.87100
H1574       H  0.50946949  0.66763541  0.98692683    -0.07100
O1575       O  0.47372445  0.63067523  0.95068847    -0.76100
Mg1576     Mg  0.55280239  0.68996991  0.93217204     1.58000
H1577       H  0.47694117  0.60413791  0.92886705    -0.07100
C1578       C  0.54281376  0.60704546  0.86508056     0.92000
O1579       O  0.57977782  0.67203798  0.87875280    -0.83400
C1580       C  0.58717019  0.69028042  0.88770706     0.92100
O1581       O  0.43730005  0.63345249  0.87246140    -0.83300
Mg1582     Mg  0.46417117  0.66663955  0.96085046     1.58200
O1583       O  0.55408620  0.62421984  0.87219795    -0.81700
O1584       O  0.48193998  0.72299531  0.98022802    -0.83400
O1585       O  0.62170547  0.90096052  0.75683785    -0.89000
C1586       C  0.56783019  0.86976075  0.72540208     0.87100
Mg1587     Mg  0.62125360  0.90971645  0.79215303     1.58100
O1588       O  0.57458295  0.92630996  0.70684707    -0.88700
O1589       O  0.62529578  0.91764574  0.72329506    -0.76000
C1590       C  0.54582890  0.98799916  0.79161352     0.92100
O1591       O  0.58092364  0.87110712  0.77761473    -0.75800
O1592       O  0.55792379  0.97747205  0.80597092    -0.83300
Mg1593     Mg  0.60945398  0.86785200  0.74963469     1.58000
C1594       C  0.51360869  0.96236520  0.71226331     0.92000
O1595       O  0.63749245  0.86424591  0.72249373    -0.81600
H1596       H  0.58777343  0.94793466  0.68415079    -0.06900
C1597       C  0.52975487  0.92572882  0.76190835     0.87000
O1598       O  0.61997591  0.94828269  0.78032650    -0.76100
O1599       O  0.58584999  0.88134143  0.72534009    -0.88900
O1600       O  0.52437462  0.94797381  0.70016899    -0.81700
C1601       C  0.55456941  0.89027407  0.66425087     0.92200
C1602       C  0.64166567  0.86805266  0.70152358     0.92000
Mg1603     Mg  0.55557060  0.96545120  0.74603038     1.58000
O1604       O  0.53548621  0.97644240  0.77672540    -0.81600
O1605       O  0.57473335  0.96263823  0.71252107    -0.75900
O1606       O  0.57540234  0.88795517  0.67013943    -0.81700
O1607       O  0.63285691  0.85207404  0.77446098    -0.83400
O1608       O  0.59875699  0.95105699  0.82288660    -0.81700
C1609       C  0.57918477  0.94560583  0.70026398     0.86400
O1610       O  0.58493262  0.95082431  0.76739292    -0.88900
O1611       O  0.54337558  0.93039929  0.74659892    -0.89000
O1612       O  0.53500975  0.92883631  0.78268097    -0.76000
Mg1613     Mg  0.59955168  0.90249623  0.69779453     1.58000
O1614       O  0.53988165  0.90051717  0.67672275    -0.83400
H1615       H  0.64597759  0.92387066  0.75019000    -0.07100
O1616       O  0.58379381  0.90610053  0.79175240    -0.88700
H1617       H  0.55998431  0.88341921  0.80246534    -0.07000
H1618       H  0.60703217  0.97747217  0.76643166    -0.07100
C1619       C  0.57417072  0.88675575  0.79118526     0.86400
C1620       C  0.63170965  0.91421266  0.74374451     0.87000
C1621       C  0.60413050  0.95987091  0.77098418     0.87100
H1622       H  0.51298343  0.91950622  0.75759721    -0.07100
O1623       O  0.54872543  0.87937286  0.72386431    -0.76100
Mg1624     Mg  0.56852365  0.94018676  0.80048566     1.58000
H1625       H  0.56868196  0.85164285  0.72854642    -0.07100
C1626       C  0.63158378  0.85370944  0.79587666     0.92000
O1627       O  0.62005875  0.92053365  0.82904669    -0.83400
C1628       C  0.61213431  0.93958376  0.83542683     0.92100
O1629       O  0.62765069  0.87815425  0.68848504    -0.83300
Mg1630     Mg  0.54014100  0.91532172  0.71275934     1.58200
O1631       O  0.62450780  0.87186154  0.80549788    -0.81700
O1632       O  0.52324825  0.97335062  0.72815454    -0.83400
O1633       O  0.37912554  0.00921353  0.65043908    -0.89000
C1634       C  0.42874786  0.97570276  0.61725810     0.87100
Mg1635     Mg  0.37986703  0.04483032  0.65808198     1.58100
O1636       O  0.42577179  0.96080393  0.67489582    -0.88700
O1637       O  0.37469863  0.97632850  0.66784362    -0.76000
C1638       C  0.46069681  0.04580008  0.72995570     0.92100
O1639       O  0.41876983  0.02727533  0.61878882    -0.75800
O1640       O  0.44772038  0.06086840  0.72174331    -0.83300
Mg1641     Mg  0.38915065  0.00036807  0.61709177     1.58000
C1642       C  0.48981007  0.96734716  0.70731617     0.92000
O1643       O  0.36013640  0.97414507  0.61514482    -0.81600
H1644       H  0.41364873  0.93937578  0.69837879    -0.06900
C1645       C  0.47110737  0.01527809  0.66854931     0.87000
O1646       O  0.38297577  0.03438551  0.69677749    -0.76100
O1647       O  0.41140000  0.97563765  0.62899638    -0.88900
O1648       O  0.47895068  0.95518003  0.69306106    -0.81700
C1649       C  0.44428206  0.91689838  0.64041695     0.92200
C1650       C  0.35590265  0.95330003  0.61956252     0.92000
Mg1651     Mg  0.44816668  0.00124684  0.71053554     1.58000
O1652       O  0.46936733  0.03178577  0.71631079    -0.81600
O1653       O  0.42833340  0.96798114  0.71090760    -0.75900
O1654       O  0.42309304  0.92140034  0.63802493    -0.81700
O1655       O  0.36613104  0.02609392  0.60150804    -0.83400
O1656       O  0.40465982  0.07769851  0.69696840    -0.81700
C1657       C  0.42237643  0.95516098  0.69475500     0.86400
O1658       O  0.41822918  0.02205925  0.69717493    -0.88900
O1659       O  0.45755370  0.00053871  0.67492467    -0.89000
O1660       O  0.46665229  0.03627827  0.67137514    -0.76000
Mg1661     Mg  0.39963240  0.95044511  0.65230371     1.58000
O1662       O  0.45833356  0.93087385  0.64928756    -0.83400
H1663       H  0.35506511  0.00402541  0.67396271    -0.07100
O1664       O  0.41701356  0.04555716  0.65212059    -0.88700
H1665       H  0.44113962  0.05204473  0.62821820    -0.07000
H1666       H  0.39814129  0.02164925  0.72540567    -0.07100
C1667       C  0.42635740  0.04208359  0.63287410     0.86400
C1668       C  0.36891124  0.99686836  0.66417301     0.87000
C1669       C  0.39971527  0.02569273  0.70750642     0.87100
H1670       H  0.48716856  0.01028124  0.66106540    -0.07100
O1671       O  0.44820023  0.97571838  0.62626286    -0.76100
Mg1672     Mg  0.43427462  0.05481115  0.68502727     1.58000
H1673       H  0.42727326  0.97779176  0.59904347    -0.07100
C1674       C  0.36774595  0.04752639  0.60277828     0.92000
O1675       O  0.38098938  0.08171219  0.66775121    -0.83400
C1676       C  0.38958889  0.08891670  0.68617880     0.92100
O1677       O  0.37012326  0.94037647  0.62962281    -0.83300
Mg1678     Mg  0.45941808  0.96653406  0.66173978     1.58200
O1679       O  0.37527996  0.05729860  0.62056805    -0.81700
O1680       O  0.48049097  0.98367032  0.71784117    -0.83400
O1681       O  0.50521117  0.09683671  0.87087005    -0.89000
C1682       C  0.47633104  0.13105015  0.81780785     0.87100
Mg1683     Mg  0.54043288  0.08755428  0.87054322     1.58100
O1684       O  0.45841675  0.07376728  0.82055033    -0.88700
O1685       O  0.47168741  0.07997496  0.87278423    -0.76000
C1686       C  0.54444016  0.01329615  0.79226040     0.92100
O1687       O  0.52728864  0.12881970  0.83266114    -0.75800
O1688       O  0.55791135  0.02427564  0.80492967    -0.83300
Mg1689     Mg  0.49838790  0.13062972  0.86047600     1.58000
C1690       C  0.46514016  0.04409811  0.75476417     0.92000
O1691       O  0.47027043  0.13304296  0.88756638    -0.81600
H1692       H  0.43419660  0.05165269  0.82964651    -0.06900
C1693       C  0.51533644  0.07677653  0.77687876     0.87000
O1694       O  0.52716490  0.04931764  0.86599366    -0.76100
O1695       O  0.47417756  0.11922644  0.83555494    -0.88900
O1696       O  0.45304318  0.05544729  0.76868774    -0.81700
C1697       C  0.41588670  0.10911127  0.80070708     0.92200
C1698       C  0.44928947  0.12889491  0.89147068     0.92000
Mg1699     Mg  0.49698980  0.03512973  0.79777892     1.58000
O1700       O  0.52985654  0.02431255  0.78077099    -0.81600
O1701       O  0.46210371  0.03761103  0.81487910    -0.75900
O1702       O  0.41900353  0.11052723  0.82225350    -0.81700
O1703       O  0.52284479  0.14440946  0.88555460    -0.83400
O1704       O  0.56901541  0.04673441  0.84823073    -0.81700
C1705       C  0.45075141  0.05437622  0.82205697     0.86400
O1706       O  0.51635013  0.04770510  0.82992718    -0.88900
O1707       O  0.49950619  0.07113925  0.78948782    -0.89000
O1708       O  0.53584706  0.07357748  0.78295092    -0.76000
Mg1709     Mg  0.44695663  0.09593252  0.84694084     1.58000
O1710       O  0.43082040  0.10099513  0.78717179    -0.83400
H1711       H  0.49790621  0.07310192  0.89409630    -0.07100
O1712       O  0.53997819  0.09324193  0.83356014    -0.88700
H1713       H  0.55266776  0.11709996  0.81197853    -0.07000
H1714       H  0.51320026  0.02082618  0.85152012    -0.07100
C1715       C  0.54063601  0.11321523  0.82538357     0.86400
C1716       C  0.49187573  0.08324019  0.88000032     0.87000
C1717       C  0.51845008  0.03832559  0.84924760     0.87100
H1718       H  0.51172579  0.08394376  0.76033647    -0.07100
O1719       O  0.47713824  0.12183668  0.79843661    -0.76100
Mg1720     Mg  0.55048659  0.06031327  0.81707426     1.58000
H1721       H  0.47955903  0.14910853  0.81937902    -0.07100
C1722       C  0.54424256  0.14329250  0.88342351     0.92000
O1723       O  0.57801794  0.07596382  0.86994361    -0.83400
C1724       C  0.58267464  0.05653069  0.86172516     0.92100
O1725       O  0.43650459  0.11870182  0.87707285    -0.83300
Mg1726     Mg  0.46603090  0.08675339  0.78703027     1.58200
O1727       O  0.55395299  0.12538981  0.87573242    -0.81700
O1728       O  0.48101180  0.03129298  0.76217612    -0.83400
O1729       O  0.87538742  0.74301007  0.15618204    -0.89000
C1730       C  0.82454384  0.77268749  0.11933274     0.87100
Mg1731     Mg  0.87631619  0.70685677  0.16371451     1.58100
O1732       O  0.82598543  0.79013611  0.17725601    -0.88700
O1733       O  0.87821207  0.77686945  0.17203546    -0.76000
C1734       C  0.79367047  0.70441715  0.23301127     0.92100
O1735       O  0.83915287  0.72098492  0.12289622    -0.75800
O1736       O  0.80717234  0.68925576  0.22580957    -0.83300
Mg1737     Mg  0.86691462  0.74991093  0.12206261     1.58000
C1738       C  0.76114801  0.78050509  0.20782508     0.92000
O1739       O  0.89332997  0.77831282  0.11854778    -0.81600
H1740       H  0.83647996  0.81213700  0.20097663    -0.06900
C1741       C  0.78378604  0.73280790  0.17061119     0.87000
O1742       O  0.87173318  0.71730253  0.20227032    -0.76100
O1743       O  0.84145645  0.77372542  0.13233386    -0.88900
O1744       O  0.77137539  0.79277850  0.19318822    -0.81700
C1745       C  0.80627389  0.83180222  0.14117417     0.92200
C1746       C  0.89609755  0.79960403  0.12147037     0.92000
Mg1747     Mg  0.80471991  0.74870839  0.21286664     1.58000
O1748       O  0.78493105  0.71737524  0.21845252    -0.81600
O1749       O  0.82299179  0.78284007  0.21323365    -0.75900
O1750       O  0.82777921  0.82850419  0.13993781    -0.81700
O1751       O  0.89396187  0.72680160  0.11162190    -0.83400
O1752       O  0.85169682  0.67320858  0.20193632    -0.81700
C1753       C  0.82861680  0.79594372  0.19718468     0.86400
O1754       O  0.83613545  0.72869628  0.20114167    -0.88900
O1755       O  0.79646298  0.74830881  0.17697151    -0.89000
O1756       O  0.78900480  0.71210384  0.17420207    -0.76000
Mg1757     Mg  0.85237629  0.80131945  0.15525808     1.58000
O1758       O  0.79251046  0.81727994  0.14964138    -0.83400
H1759       H  0.89863319  0.75018757  0.17996246    -0.07100
O1760       O  0.83951826  0.70470809  0.15708495    -0.88700
H1761       H  0.81763113  0.69533762  0.13205866    -0.07000
H1762       H  0.85501654  0.72993425  0.23014143    -0.07100
C1763       C  0.83136465  0.70649392  0.13716261     0.86400
C1764       C  0.88477928  0.75634785  0.16956357     0.87000
C1765       C  0.85431545  0.72568376  0.21223370     0.87100
H1766       H  0.76779324  0.73688693  0.16249677    -0.07100
O1767       O  0.80475208  0.77239027  0.12750444    -0.76100
Mg1768     Mg  0.82156487  0.69505658  0.18925397     1.58000
H1769       H  0.82706858  0.77018864  0.10125747    -0.07100
C1770       C  0.89007116  0.70587646  0.10953143     0.92000
O1771       O  0.87620936  0.66959669  0.17328807    -0.83400
C1772       C  0.86675706  0.66188228  0.19113191     0.92100
O1773       O  0.88163347  0.81192318  0.13202675    -0.83300
Mg1774     Mg  0.79297026  0.78191092  0.16297604     1.58200
O1775       O  0.88142172  0.69461122  0.12585195    -0.81700
O1776       O  0.77127568  0.76497666  0.21879303    -0.83400
O1777       O  0.74640785  0.65390369  0.37027144    -0.89000
C1778       C  0.77723517  0.62077530  0.31903478     0.87100
Mg1779     Mg  0.71119644  0.66264444  0.37004613     1.58100
O1780       O  0.79382256  0.67764453  0.32266301    -0.88700
O1781       O  0.77966312  0.67065499  0.37414098    -0.76000
C1782       C  0.70867938  0.73788673  0.29281444     0.92100
O1783       O  0.72627452  0.62305270  0.33065483    -0.75800
O1784       O  0.69436774  0.72718889  0.30484213    -0.83300
Mg1785     Mg  0.75403192  0.62046555  0.35943195     1.58000
C1786       C  0.78897017  0.70769501  0.25765572     0.92000
O1787       O  0.78060175  0.61737356  0.38763668    -0.81600
H1788       H  0.81739069  0.69978686  0.33326359    -0.06900
C1789       C  0.73840059  0.67520846  0.27767954     0.87000
O1790       O  0.72332458  0.70121613  0.36659984    -0.76100
O1791       O  0.77851619  0.63201451  0.33669198    -0.88900
O1792       O  0.80077027  0.69719614  0.27236553    -0.81700
C1793       C  0.83698172  0.64227009  0.30326583     0.92200
C1794       C  0.80146975  0.62139463  0.39198907     0.92000
Mg1795     Mg  0.75566336  0.71652195  0.29949487     1.58000
O1796       O  0.72325228  0.72655019  0.28160036    -0.81600
O1797       O  0.78991518  0.71394919  0.31787391    -0.75900
O1798       O  0.83285485  0.64011137  0.32454156    -0.81700
O1799       O  0.72877089  0.60541322  0.38307381    -0.83400
O1800       O  0.67920843  0.70294858  0.34759362    -0.81700
C1801       C  0.80118033  0.69709205  0.32499010     0.86400
O1802       O  0.73481145  0.70363001  0.33086467    -0.88900
O1803       O  0.75380720  0.68060322  0.29087229    -0.89000
O1804       O  0.71767837  0.67841247  0.28311322    -0.76000
Mg1805     Mg  0.80445887  0.65470960  0.34850229     1.58000
O1806       O  0.82283244  0.65123930  0.28947566    -0.83400
H1807       H  0.75254125  0.67690865  0.39455707    -0.07100
O1808       O  0.71096639  0.65766300  0.33292725    -0.88700
H1809       H  0.70122062  0.63426697  0.30943353    -0.07000
H1810       H  0.73679369  0.73029280  0.35286520    -0.07100
C1811       C  0.71225202  0.63817133  0.32364268     0.86400
C1812       C  0.75922178  0.66721719  0.38041309     0.87000
C1813       C  0.73207353  0.71269121  0.35023707     0.87100
H1814       H  0.74257131  0.66833255  0.26112781    -0.07100
O1815       O  0.77659202  0.63023106  0.29976834    -0.76100
Mg1816     Mg  0.70101689  0.69092647  0.31679681     1.58000
H1817       H  0.77439303  0.60264276  0.32019677    -0.07100
C1818       C  0.70736763  0.60697175  0.38156035     0.92000
O1819       O  0.67411048  0.67304604  0.36990153    -0.83400
C1820       C  0.66727832  0.69185721  0.36192305     0.92100
O1821       O  0.81456647  0.63163352  0.37798455    -0.83300
Mg1822     Mg  0.78754841  0.66532554  0.28890223     1.58200
O1823       O  0.69782323  0.62506882  0.37437609    -0.81700
O1824       O  0.77292208  0.72075874  0.26425152    -0.83400
O1825       O  0.63045027  0.84681115  0.25876044    -0.89000
C1826       C  0.68330393  0.87679245  0.22319865     0.87100
Mg1827     Mg  0.63120760  0.83878391  0.29466110     1.58100
O1828       O  0.67527734  0.81998918  0.20710634    -0.88700
O1829       O  0.62505273  0.83020193  0.22535081    -0.76000
C1830       C  0.70852541  0.76318037  0.29298736     0.92100
O1831       O  0.67269865  0.87696643  0.27647426    -0.75800
O1832       O  0.69740528  0.77379067  0.30801441    -0.83300
Mg1833     Mg  0.64354165  0.87932005  0.24973313     1.58000
C1834       C  0.73706705  0.78439184  0.21268322     0.92000
O1835       O  0.61474926  0.88396594  0.22392956    -0.81600
H1836       H  0.66075544  0.79697516  0.18670080    -0.06900
C1837       C  0.72231314  0.82397965  0.26044987     0.87000
O1838       O  0.63357246  0.80011064  0.28374464    -0.76100
O1839       O  0.66578110  0.86466212  0.22512023    -0.88900
O1840       O  0.72531839  0.79747937  0.20006986    -0.81700
C1841       C  0.69492671  0.85438722  0.16301732     0.92200
C1842       C  0.60922851  0.88102022  0.20319103     0.92000
Mg1843     Mg  0.69654346  0.78288020  0.24761630     1.58000
O1844       O  0.71814286  0.77473351  0.27768120    -0.81600
O1845       O  0.67567505  0.78400103  0.21496366    -0.75900
O1846       O  0.67430294  0.85741661  0.16956299    -0.81700
O1847       O  0.62187946  0.89591320  0.27423406    -0.83400
O1848       O  0.65712501  0.79973226  0.32493250    -0.81700
C1849       C  0.67031150  0.80029874  0.20205805     0.86400
O1850       O  0.66813045  0.79853072  0.26946506    -0.88900
O1851       O  0.70830226  0.81796211  0.24598630    -0.89000
O1852       O  0.71793630  0.82212236  0.28159280    -0.76000
Mg1853     Mg  0.65014714  0.84420963  0.19826209     1.58000
O1854       O  0.70969462  0.84387290  0.17504430    -0.83400
H1855       H  0.60559897  0.82421345  0.25327566    -0.07100
O1856       O  0.66894992  0.84375318  0.29410927    -0.88700
H1857       H  0.69394246  0.86634876  0.30166038    -0.07000
H1858       H  0.64712457  0.77102145  0.27022117    -0.07100
C1859       C  0.67921766  0.86252821  0.29128966     0.86400
C1860       C  0.61970489  0.83365365  0.24615273     0.87000
C1861       C  0.64949072  0.78885829  0.27413799     0.87100
H1862       H  0.73868138  0.83047154  0.25508067    -0.07100
O1863       O  0.70250846  0.86759239  0.22082498    -0.76100
Mg1864     Mg  0.68574113  0.81052690  0.30159273     1.58000
H1865       H  0.68207166  0.89504022  0.22531397    -0.07100
C1866       C  0.62009744  0.89477688  0.29556727     0.92000
O1867       O  0.63279786  0.82779513  0.33226287    -0.83400
C1868       C  0.64222540  0.80901395  0.33753972     0.92100
O1869       O  0.62186085  0.86990382  0.18942384    -0.83300
Mg1870     Mg  0.71029625  0.83095386  0.21141282     1.58200
O1871       O  0.62566263  0.87694275  0.30671785    -0.81700
O1872       O  0.72809640  0.77366485  0.22910076    -0.83400
O1873       O  0.00325177  0.59674254  0.87105501    -0.89000
C1874       C  0.97221571  0.63069822  0.81848986     0.87100
Mg1875     Mg  0.03882686  0.58843176  0.87250320     1.58100
O1876       O  0.95654060  0.57297266  0.82169697    -0.88700
O1877       O  0.96978779  0.57993037  0.87387506    -0.76000
C1878       C  0.04354481  0.51791447  0.79046765     0.92100
O1879       O  0.02433345  0.62838363  0.83238414    -0.75800
O1880       O  0.05772689  0.52609881  0.80441344    -0.83300
Mg1881     Mg  0.99574361  0.63021304  0.86001645     1.58000
C1882       C  0.96501668  0.54287226  0.75616707     0.92000
O1883       O  0.96800811  0.63390223  0.88707107    -0.81600
H1884       H  0.93428420  0.54925957  0.83175142    -0.06900
C1885       C  0.01378882  0.57985336  0.77905021     0.87000
O1886       O  0.02769055  0.54996829  0.86710690    -0.76100
O1887       O  0.97201459  0.61786852  0.83559496    -0.88900
O1888       O  0.95243261  0.55434018  0.76955845    -0.81700
C1889       C  0.91336477  0.60663683  0.80169300     0.92200
C1890       C  0.94705139  0.63010222  0.89112723     0.92000
Mg1891     Mg  0.99767550  0.53720226  0.79901624     1.58000
O1892       O  0.03015437  0.53150947  0.78068951    -0.81600
O1893       O  0.96303497  0.53703038  0.81693998    -0.75900
O1894       O  0.91694533  0.60911707  0.82305827    -0.81700
O1895       O  0.01910117  0.64460209  0.88460072    -0.83400
O1896       O  0.07274352  0.54979160  0.84886296    -0.81700
C1897       C  0.95044949  0.55306687  0.82379575     0.86400
O1898       O  0.01704731  0.54980730  0.83119583    -0.88900
O1899       O  0.99795213  0.57310202  0.79114026    -0.89000
O1900       O  0.03441717  0.57681535  0.78505269    -0.76000
Mg1901     Mg  0.94488569  0.59530680  0.84787617     1.58000
O1902       O  0.92812302  0.59845664  0.78805231    -0.83400
H1903       H  0.99638599  0.57343221  0.89483632    -0.07100
O1904       O  0.04203673  0.59501353  0.83553822    -0.88700
H1905       H  0.05051787  0.61865143  0.81185137    -0.07000
H1906       H  0.01510329  0.52163445  0.85119716    -0.07100
C1907       C  0.03949433  0.61419414  0.82592583     0.86400
C1908       C  0.99010505  0.58329509  0.88065420     0.87000
C1909       C  0.01954478  0.53945497  0.84988451     0.87100
H1910       H  0.01011417  0.58782873  0.76289657    -0.07100
O1911       O  0.97261152  0.62232217  0.79877739    -0.76100
Mg1912     Mg  0.05121864  0.56236137  0.81813370     1.58000
H1913       H  0.97405744  0.64887795  0.82076102    -0.07100
C1914       C  0.04046675  0.64342518  0.88609372     0.92000
O1915       O  0.07589315  0.57833404  0.87348642    -0.83400
C1916       C  0.08367858  0.56038590  0.86437130     0.92100
O1917       O  0.93436696  0.61900614  0.87733495    -0.83300
Mg1918     Mg  0.96375376  0.58634139  0.78805600     1.58200
O1919       O  0.05142527  0.62579418  0.87982124    -0.81700
O1920       O  0.98171313  0.53156389  0.76398198    -0.83400
O1921       O  0.09780020  0.38156837  0.74341563    -0.89000
C1922       C  0.13132541  0.43348346  0.77554564     0.87100
Mg1923     Mg  0.08888216  0.38145811  0.70812427     1.58100
O1924       O  0.07385394  0.42795418  0.79202141    -0.88700
O1925       O  0.08206083  0.37640084  0.77707049    -0.76000
C1926       C  0.01645718  0.46066613  0.70683716     0.92100
O1927       O  0.12894002  0.42105696  0.72281824    -0.75800
O1928       O  0.02524435  0.44791057  0.69195690    -0.83300
Mg1929     Mg  0.13136996  0.39248342  0.75050764     1.58000
C1930       C  0.04239773  0.49316597  0.78584524     0.92000
O1931       O  0.13526794  0.36467025  0.77698426    -0.81600
H1932       H  0.05065661  0.41660347  0.81422328    -0.06900
C1933       C  0.07848441  0.47340900  0.73655580     0.87000
O1934       O  0.05047153  0.38498281  0.72028623    -0.76100
O1935       O  0.11912296  0.41589985  0.77551031    -0.88900
O1936       O  0.05355974  0.47920752  0.79804471    -0.81700
C1937       C  0.10730338  0.44743507  0.83580545     0.92200
C1938       C  0.13250576  0.35928141  0.79775988     0.92000
Mg1939     Mg  0.03653227  0.45153504  0.75246567     1.58000
O1940       O  0.02964798  0.47054126  0.72059594    -0.81600
O1941       O  0.03765355  0.43245912  0.78643857    -0.75900
O1942       O  0.11051682  0.42629609  0.83145590    -0.81700
O1943       O  0.14560847  0.36845894  0.72598343    -0.83400
O1944       O  0.04914156  0.40502178  0.67749709    -0.81700
C1945       C  0.05405712  0.42526652  0.79835518     0.86400
O1946       O  0.04958943  0.42057088  0.73204645    -0.88900
O1947       O  0.07239184  0.46030246  0.75181857    -0.89000
O1948       O  0.07533685  0.46831435  0.71572282    -0.76000
Mg1949     Mg  0.09721868  0.40193836  0.80263465     1.58000
O1950       O  0.09861173  0.46123848  0.82152251    -0.83400
H1951       H  0.07558253  0.35655265  0.74960062    -0.07100
O1952       O  0.09448043  0.41854271  0.70733600    -0.88700
H1953       H  0.11781770  0.44211835  0.69764007    -0.07000
H1954       H  0.02195448  0.39975344  0.73387746    -0.07100
C1955       C  0.11390889  0.42792585  0.70869283     0.86400
C1956       C  0.08507174  0.37079038  0.75635187     0.87000
C1957       C  0.03966057  0.40168461  0.72913032     0.87100
H1958       H  0.08595564  0.48963413  0.74094173    -0.07100
O1959       O  0.12225837  0.45288502  0.77610827    -0.76100
Mg1960     Mg  0.06167161  0.43528330  0.69843915     1.58000
H1961       H  0.14953648  0.43195549  0.77316244    -0.07100
C1962       C  0.14417474  0.36990157  0.70465119     0.92000
O1963       O  0.07782916  0.38133107  0.67104225    -0.83400
C1964       C  0.05863032  0.38958011  0.66568526     0.92100
O1965       O  0.12211667  0.37237791  0.81180958    -0.83300
Mg1966     Mg  0.08611581  0.46228958  0.78595159     1.58200
O1967       O  0.12622762  0.37704709  0.69484088    -0.81700
O1968       O  0.03038598  0.48585532  0.76942988    -0.83400
O1969       O  0.88015030  0.50501522  0.65142977    -0.89000
C1970       C  0.93249382  0.47067486  0.61933478     0.87100
Mg1971     Mg  0.87890354  0.54048719  0.65966269     1.58100
O1972       O  0.92729833  0.45537854  0.67668895    -0.88700
O1973       O  0.87601841  0.47166915  0.66838355    -0.76000
C1974       C  0.96023420  0.54283615  0.73142142     0.92100
O1975       O  0.92098392  0.52448913  0.62087334    -0.75800
O1976       O  0.94654554  0.55697261  0.72277315    -0.83300
Mg1977     Mg  0.89269092  0.49702086  0.61843362     1.58000
C1978       C  0.99150661  0.46382576  0.70825329     0.92000
O1979       O  0.86486392  0.47049916  0.61447488    -0.81600
H1980       H  0.91512066  0.43456249  0.70070095    -0.06900
C1981       C  0.97137313  0.51120935  0.66984363     0.87000
O1982       O  0.88326679  0.52968400  0.69825714    -0.76100
O1983       O  0.91570323  0.47279314  0.63243407    -0.88900
O1984       O  0.97807908  0.45064016  0.69748225    -0.81700
C1985       C  0.94584411  0.41106063  0.64211257     0.92200
C1986       C  0.85939920  0.44982682  0.61780167     0.92000
Mg1987     Mg  0.94958511  0.49704628  0.71243486     1.58000
O1988       O  0.96962941  0.52864586  0.71834262    -0.81600
O1989       O  0.93019405  0.46326691  0.71262303    -0.75900
O1990       O  0.92513084  0.41732287  0.63951432    -0.81700
O1991       O  0.87008860  0.52132074  0.60195044    -0.83400
O1992       O  0.90319601  0.57448226  0.69800584    -0.81700
C1993       C  0.92388590  0.45023522  0.69670388     0.86400
O1994       O  0.91861806  0.51752253  0.69859790    -0.88900
O1995       O  0.95895934  0.49561716  0.67663546    -0.89000
O1996       O  0.96573264  0.53202001  0.67261883    -0.76000
Mg1997     Mg  0.90125853  0.44560169  0.65349733     1.58000
O1998       O  0.96086562  0.42355893  0.65185982    -0.83400
H1999       H  0.85585719  0.49897152  0.67449941    -0.07100
O2000       O  0.91620075  0.54342743  0.65339539    -0.88700
H2001       H  0.94147260  0.55048304  0.63093796    -0.07000
H2002       H  0.89850431  0.51681428  0.72679473    -0.07100
C2003       C  0.92686646  0.53997820  0.63489538     0.86400
C2004       C  0.86996913  0.49219292  0.66481596     0.87000
C2005       C  0.90005779  0.52095993  0.70891621     0.87100
H2006       H  0.98756115  0.50716886  0.66206119    -0.07100
O2007       O  0.95219457  0.46871957  0.62748935    -0.76100
Mg2008     Mg  0.93327420  0.55106372  0.68636381     1.58000
H2009       H  0.93019647  0.47222991  0.60112982    -0.07100
C2010       C  0.86705511  0.54246565  0.60405710     0.92000
O2011       O  0.87799162  0.57736620  0.66985857    -0.83400
C2012       C  0.88719289  0.58511821  0.68777314     0.92100
O2013       O  0.87220629  0.43616988  0.62881465    -0.83300
Mg2014     Mg  0.96166564  0.46052269  0.66403344     1.58200
O2015       O  0.87188176  0.55300233  0.62238108    -0.81700
O2016       O  0.98351310  0.48009111  0.72002209    -0.83400
O2017       O  0.62697502  0.40470144  0.99402293    -0.89000
C2018       C  0.68061445  0.37097561  0.02441274     0.87100
Mg2019     Mg  0.62723130  0.41320293  0.95842271     1.58100
O2020       O  0.67779685  0.42812322  0.04197338    -0.88700
O2021       O  0.62568943  0.42207707  0.02737790    -0.76000
C2022       C  0.70635670  0.48628368  0.95488398     0.92100
O2023       O  0.66547142  0.37201233  0.97222960    -0.75800
O2024       O  0.69423509  0.47523068  0.94102198    -0.83300
Mg2025     Mg  0.63821025  0.37119489  0.00140843     1.58000
C2026       C  0.74289620  0.45845632  0.03490295     0.92000
O2027       O  0.61152221  0.36767209  0.02953556    -0.81600
H2028       H  0.66781025  0.45078192  0.06531717    -0.06900
C2029       C  0.72129909  0.42342316  0.98569235     0.87000
O2030       O  0.63237556  0.45166742  0.97074217    -0.76100
O2031       O  0.66341629  0.38373367  0.02460288    -0.88900
O2032       O  0.72927804  0.44711411  0.04741280    -0.81700
C2033       C  0.69622317  0.39173668  0.08511022     0.92200
C2034       C  0.60796502  0.37153288  0.05054586     0.92000
Mg2035     Mg  0.70000512  0.46574625  0.00241844     1.58000
O2036       O  0.71758117  0.47527834  0.96965563    -0.81600
O2037       O  0.68238351  0.46428820  0.03705849    -0.75900
O2038       O  0.67518911  0.39053087  0.07964850    -0.81700
O2039       O  0.61272045  0.35760846  0.97841248    -0.83400
O2040       O  0.65118661  0.45285324  0.92897200    -0.81700
C2041       C  0.67566727  0.44771501  0.04895603     0.86400
O2042       O  0.66811195  0.45263861  0.98264876    -0.88900
O2043       O  0.70893720  0.42965700  0.00152344    -0.89000
O2044       O  0.71514391  0.42615125  0.96510617    -0.76000
Mg2045     Mg  0.65130550  0.40587242  0.05229558     1.58000
O2046       O  0.71127690  0.40078252  0.07213157    -0.83400
H2047       H  0.60444141  0.42916234  0.00115945    -0.07100
O2048       O  0.66431021  0.40716661  0.95890918    -0.88700
H2049       H  0.68569162  0.38313279  0.94625866    -0.07000
H2050       H  0.64716612  0.48016014  0.98437125    -0.07100
C2051       C  0.67249965  0.38725297  0.95844882     0.86400
C2052       C  0.61830374  0.41872998  0.00724852     0.87000
C2053       C  0.64912733  0.46246321  0.97968338     0.87100
H2054       H  0.73775971  0.41607655  0.98935048    -0.07100
O2055       O  0.70036510  0.37931977  0.02540945    -0.76100
Mg2056     Mg  0.68161943  0.43950943  0.94887172     1.58000
H2057       H  0.67847370  0.35290192  0.02162010    -0.07100
C2058       C  0.61339971  0.35757776  0.95696927     0.92000
O2059       O  0.62825617  0.42424183  0.92060368    -0.83400
C2060       C  0.63728410  0.44324989  0.91554750     0.92100
O2061       O  0.62196301  0.38270192  0.06278578    -0.83300
Mg2062     Mg  0.71155493  0.41486683  0.03572556     1.58200
O2063       O  0.62067648  0.37485627  0.94582421    -0.81700
O2064       O  0.73518990  0.47075695  0.01879431    -0.83400
O2065       O  0.74498083  0.59487358  0.87713233    -0.89000
C2066       C  0.77449866  0.62875644  0.92982472     0.87100
Mg2067     Mg  0.70902707  0.58735144  0.87659733     1.58100
O2068       O  0.79253732  0.57169159  0.92499690    -0.88700
O2069       O  0.77869415  0.57873134  0.87360765    -0.76000
C2070       C  0.70640659  0.51158663  0.95382770     0.92100
O2071       O  0.72352867  0.62664879  0.91554623    -0.75800
O2072       O  0.69198924  0.52188849  0.94157857    -0.83300
Mg2073     Mg  0.75229280  0.62841397  0.88756257     1.58000
C2074       C  0.78526174  0.53887285  0.98761299     0.92000
O2075       O  0.77997617  0.63148912  0.86062393    -0.81600
H2076       H  0.81524955  0.54920442  0.91336387    -0.06900
C2077       C  0.73596693  0.57370801  0.96881867     0.87000
O2078       O  0.71974345  0.54852475  0.87920657    -0.76100
O2079       O  0.77628654  0.61692150  0.91207958    -0.88900
O2080       O  0.79753854  0.55232629  0.97598036    -0.81700
C2081       C  0.83424268  0.60733630  0.94604365     0.92200
C2082       C  0.80100883  0.62809213  0.85669932     0.92000
Mg2083     Mg  0.75244661  0.53323751  0.94501631     1.58000
O2084       O  0.72101762  0.52336941  0.96431525    -0.81600
O2085       O  0.78650606  0.53541850  0.92661903    -0.75900
O2086       O  0.83103564  0.60896676  0.92455905    -0.81700
O2087       O  0.72916069  0.64152862  0.86194546    -0.83400
O2088       O  0.67637304  0.54764240  0.89937250    -0.81700
C2089       C  0.79898774  0.55211542  0.92149754     0.86400
O2090       O  0.73170511  0.54671321  0.91462985    -0.88900
O2091       O  0.75125074  0.56867829  0.95532328    -0.89000
O2092       O  0.71521817  0.57061467  0.96355586    -0.76000
Mg2093     Mg  0.80360953  0.59444220  0.89965882     1.58000
O2094       O  0.81972984  0.59838079  0.95949626    -0.83400
H2095       H  0.75180599  0.57175015  0.85310988    -0.07100
O2096       O  0.70844168  0.59198288  0.91385785    -0.88700
H2097       H  0.69808029  0.61585478  0.93661750    -0.07000
H2098       H  0.73261888  0.51941340  0.89334602    -0.07100
C2099       C  0.70945521  0.61164800  0.92274483     0.86400
C2100       C  0.75815351  0.58165122  0.86724867     0.87000
C2101       C  0.72841713  0.53719466  0.89561219     0.87100
H2102       H  0.74028493  0.58022692  0.98546797    -0.07100
O2103       O  0.77367122  0.61937817  0.94905797    -0.76100
Mg2104     Mg  0.69833685  0.55868061  0.92990740     1.58000
H2105       H  0.77155769  0.64687167  0.92838914    -0.07100
C2106       C  0.70789409  0.64250117  0.86425446     0.92000
O2107       O  0.67159801  0.57778583  0.87721224    -0.83400
C2108       C  0.66428899  0.55932056  0.88572325     0.92100
O2109       O  0.81404580  0.61801380  0.87081311    -0.83300
Mg2110     Mg  0.78468573  0.58382588  0.95872126     1.58200
O2111       O  0.69675445  0.62567894  0.87227787    -0.81700
O2112       O  0.76951119  0.52723283  0.97844977    -0.83400
O2113       O  0.84800093  0.48982240  0.11959590    -0.89000
C2114       C  0.88128762  0.52565924  0.07041969     0.87100
Mg2115     Mg  0.83969130  0.45402796  0.11880518     1.58100
O2116       O  0.82419476  0.54191944  0.07513810    -0.88700
O2117       O  0.83215596  0.52338571  0.12541313    -0.76000
C2118       C  0.76774917  0.45722844  0.03911294     0.92100
O2119       O  0.87864879  0.47283147  0.07839114    -0.75800
O2120       O  0.77622999  0.44191209  0.05151296    -0.83300
Mg2121     Mg  0.88127659  0.49841071  0.10857865     1.58000
C2122       C  0.79005851  0.53543702  0.01174737     0.92000
O2123       O  0.88521404  0.52289692  0.13823701    -0.81600
H2124       H  0.80080312  0.56240915  0.08897476    -0.06900
C2125       C  0.82949275  0.48829936  0.02869323     0.87000
O2126       O  0.80119715  0.46504014  0.11629953    -0.76100
O2127       O  0.86933723  0.52418660  0.08752626    -0.88900
O2128       O  0.80431945  0.54813431  0.02209890    -0.81700
C2129       C  0.85985498  0.58600783  0.05727693     0.92200
C2130       C  0.88269419  0.54371395  0.14357497     0.92000
Mg2131     Mg  0.78793525  0.50134626  0.05313047     1.58000
O2132       O  0.78115884  0.47166922  0.03074159    -0.81600
O2133       O  0.78820416  0.53394634  0.07407381    -0.75900
O2134       O  0.86265826  0.57918489  0.07785019    -0.81700
O2135       O  0.89684620  0.47213326  0.13022890    -0.83400
O2136       O  0.80148525  0.42331754  0.09259739    -0.81700
C2137       C  0.80436457  0.54698577  0.07960276     0.86400
O2138       O  0.80185006  0.47939790  0.08193833    -0.88900
O2139       O  0.82340883  0.50286011  0.04259406    -0.89000
O2140       O  0.82649011  0.46719979  0.03267603    -0.76000
Mg2141     Mg  0.84803161  0.54996380  0.10114236     1.58000
O2142       O  0.84958385  0.57398815  0.04223848    -0.83400
H2143       H  0.82489444  0.49524493  0.14402683    -0.07100
O2144       O  0.84599298  0.45361330  0.08142525    -0.88700
H2145       H  0.86869846  0.44847128  0.05591301    -0.07000
H2146       H  0.77311169  0.47913115  0.10132392    -0.07100
C2147       C  0.86460888  0.45786513  0.07121574     0.86400
C2148       C  0.83488218  0.50243729  0.13034218     0.87000
C2149       C  0.79098831  0.47487241  0.09991983     0.87100
H2150       H  0.83689247  0.49355612  0.01268606    -0.07100
O2151       O  0.87243940  0.52801392  0.05106170    -0.76100
Mg2152     Mg  0.81305737  0.44705955  0.06424173     1.58000
H2153       H  0.89948853  0.52334606  0.07184143    -0.07100
C2154       C  0.89480887  0.45076463  0.12971199     0.92000
O2155       O  0.82905656  0.41681791  0.11768045    -0.83400
C2156       C  0.81054157  0.41120970  0.10807644     0.92100
O2157       O  0.87272505  0.55789716  0.13046650    -0.83300
Mg2158     Mg  0.83658608  0.53737136  0.04082332     1.58200
O2159       O  0.87666498  0.44106705  0.12308239    -0.81700
O2160       O  0.77947698  0.51959748  0.02175334    -0.83400
O2161       O  0.24474878  0.09589053  0.87565913    -0.89000
C2162       C  0.27507512  0.12840857  0.92752302     0.87100
Mg2163     Mg  0.20921564  0.08729400  0.87562216     1.58100
O2164       O  0.29240636  0.07176054  0.92327800    -0.88700
O2165       O  0.27833756  0.07959133  0.87203585    -0.76000
C2166       C  0.20777261  0.01107617  0.95275184     0.92100
O2167       O  0.22441525  0.12603775  0.91554900    -0.75800
O2168       O  0.19319132  0.02093157  0.94032912    -0.83300
Mg2169     Mg  0.25237906  0.12918584  0.88686819     1.58000
C2170       C  0.28612016  0.03781999  0.98603519     0.92000
O2171       O  0.27950215  0.13259439  0.85882939    -0.81600
H2172       H  0.31546342  0.04971842  0.91143840    -0.06900
C2173       C  0.23647232  0.07329068  0.96753395     0.87000
O2174       O  0.22089485  0.04873321  0.87782995    -0.76100
O2175       O  0.27669470  0.11748608  0.90971379    -0.88900
O2176       O  0.29800015  0.05187288  0.97466881    -0.81700
C2177       C  0.33444012  0.10724681  0.94461079     0.92200
C2178       C  0.30055088  0.12888351  0.85485524     0.92000
Mg2179     Mg  0.25318481  0.03293266  0.94361899     1.58000
O2180       O  0.22199466  0.02332119  0.96317279    -0.81600
O2181       O  0.28714885  0.03537445  0.92504321    -0.75900
O2182       O  0.33090539  0.10959685  0.92320974    -0.81700
O2183       O  0.22710148  0.14456631  0.86324196    -0.83400
O2184       O  0.17751977  0.04640119  0.89800570    -0.81700
C2185       C  0.29921894  0.05231321  0.91971034     0.86400
O2186       O  0.23248757  0.04657647  0.91337346    -0.88900
O2187       O  0.25173389  0.06828548  0.95399643    -0.89000
O2188       O  0.21571646  0.07010081  0.96234134    -0.76000
Mg2189     Mg  0.30303844  0.09524756  0.89813290     1.58000
O2190       O  0.32007287  0.09784829  0.95789167    -0.83400
H2191       H  0.25147284  0.07297156  0.85142217    -0.07100
O2192       O  0.20850471  0.09164457  0.91291116    -0.88700
H2193       H  0.19934633  0.11485316  0.93683821    -0.07000
H2194       H  0.23417472  0.01966136  0.89165483    -0.07100
C2195       C  0.21022839  0.11098226  0.92248191     0.86400
C2196       C  0.25785925  0.08271429  0.86565295     0.87000
C2197       C  0.22957963  0.03731141  0.89416562     0.87100
H2198       H  0.24081531  0.07988240  0.98414798    -0.07100
O2199       O  0.27421923  0.11859713  0.94658438    -0.76100
Mg2200     Mg  0.19900803  0.05792030  0.92868502     1.58000
H2201       H  0.27214864  0.14654035  0.92664990    -0.07100
C2202       C  0.20567620  0.14318183  0.86500949     0.92000
O2203       O  0.17210736  0.07656628  0.87601740    -0.83400
C2204       C  0.16538670  0.05768464  0.88409278     0.92100
O2205       O  0.31348107  0.11882313  0.86910887    -0.83300
Mg2206     Mg  0.28505827  0.08339825  0.95709090     1.58200
O2207       O  0.19605572  0.12506758  0.87211852    -0.81700
O2208       O  0.27027764  0.02638611  0.97682992    -0.83400
O2209       O  0.13100308  0.90171673  0.98999291    -0.89000
C2210       C  0.18388695  0.86928629  0.02223422     0.87100
Mg2211     Mg  0.13177334  0.91076629  0.95499477     1.58100
O2212       O  0.17910475  0.92620769  0.03968260    -0.88700
O2213       O  0.12757951  0.91888059  0.02329276    -0.76000
C2214       C  0.20858799  0.98579144  0.95384597     0.92100
O2215       O  0.17128269  0.87022109  0.96927846    -0.75800
O2216       O  0.19716069  0.97438080  0.93970328    -0.83300
Mg2217     Mg  0.14296900  0.86843517  0.99725329     1.58000
C2218       C  0.24422255  0.95740138  0.03487616     0.92000
O2219       O  0.11530532  0.86526527  0.02375252    -0.81600
H2220       H  0.16822619  0.94844082  0.06304149    -0.06900
C2221       C  0.22458361  0.92289537  0.98465867     0.87000
O2222       O  0.13561347  0.94918824  0.96777773    -0.76100
O2223       O  0.16653608  0.88180183  0.02157161    -0.88900
O2224       O  0.23015525  0.94613329  0.04692096    -0.81700
C2225       C  0.19689019  0.89059975  0.08320891     0.92200
C2226       C  0.10994936  0.86879768  0.04439881     0.92000
Mg2227     Mg  0.20207012  0.96456000  0.00123376     1.58000
O2228       O  0.21991919  0.97515072  0.96883753    -0.81600
O2229       O  0.18361473  0.96244809  0.03545546    -0.75900
O2230       O  0.17604881  0.88873360  0.07716724    -0.81700
O2231       O  0.11925188  0.85307231  0.97293679    -0.83400
O2232       O  0.15526161  0.95091853  0.92610740    -0.81700
C2233       C  0.17658654  0.94567030  0.04687705     0.86400
O2234       O  0.17097606  0.95088746  0.98053527    -0.88900
O2235       O  0.21159512  0.92863900  0.00016642    -0.89000
O2236       O  0.21898065  0.92573353  0.96392823    -0.76000
Mg2237     Mg  0.15265675  0.90329288  0.04899436     1.58000
O2238       O  0.21211648  0.89980856  0.07059429    -0.83400
H2239       H  0.10713149  0.92511912  0.99625517    -0.07100
O2240       O  0.16899135  0.90538163  0.95600447    -0.88700
H2241       H  0.19177901  0.88232361  0.94399063    -0.07000
H2242       H  0.14935541  0.97788920  0.98203256    -0.07100
C2243       C  0.17802509  0.88581223  0.95575008     0.86400
C2244       C  0.12116083  0.91526202  0.00289556     0.87000
C2245       C  0.15185663  0.96029492  0.97721870     0.87100
H2246       H  0.24111600  0.91594028  0.98873435    -0.07100
O2247       O  0.20344693  0.87794878  0.02382044    -0.76100
Mg2248     Mg  0.18552345  0.93831501  0.94690555     1.58000
H2249       H  0.18211281  0.85115264  0.01958078    -0.07100
C2250       C  0.11935505  0.85500867  0.95155706     0.92000
O2251       O  0.13282598  0.92189651  0.91773470    -0.83400
C2252       C  0.14118436  0.94119787  0.91293061     0.92100
O2253       O  0.12309793  0.87930560  0.05813461    -0.83300
Mg2254     Mg  0.21339351  0.91373734  0.03440744     1.58200
O2255       O  0.12630160  0.87309850  0.94167160    -0.81700
O2256       O  0.23699059  0.96971459  0.01853357    -0.83400
O2257       O  0.34743085  0.99231950  0.12295684    -0.89000
C2258       C  0.38109032  0.02618340  0.07295527     0.87100
Mg2259     Mg  0.33950183  0.95648389  0.12193184     1.58100
O2260       O  0.32339569  0.04119678  0.07473607    -0.88700
O2261       O  0.32988689  0.02529930  0.12638743    -0.76000
C2262       C  0.26899737  0.95610771  0.03986667     0.92100
O2263       O  0.37951503  0.97412018  0.08341600    -0.75800
O2264       O  0.27709338  0.94138014  0.05323899    -0.83300
Mg2265     Mg  0.38082932  0.00126656  0.11265250     1.58000
C2266       C  0.29144950  0.03368288  0.00994293     0.92000
O2267       O  0.38401520  0.02794171  0.14123690    -0.81600
H2268       H  0.29987311  0.06288663  0.08633809    -0.06900
C2269       C  0.33090173  0.98675440  0.03006058     0.87000
O2270       O  0.30095128  0.96751014  0.11796621    -0.76100
O2271       O  0.36887752  0.02560026  0.08994784    -0.88900
O2272       O  0.30612814  0.04605287  0.02006947    -0.81700
C2273       C  0.35849612  0.08517650  0.05675246     0.92200
C2274       C  0.37994154  0.04892001  0.14505577     0.92000
Mg2275     Mg  0.28838621  0.00071085  0.05243331     1.58000
O2276       O  0.28273675  0.97007265  0.03125677    -0.81600
O2277       O  0.28740928  0.03415029  0.07185851    -0.75900
O2278       O  0.36036858  0.07924385  0.07765424    -0.81700
O2279       O  0.39573806  0.97603805  0.13610913    -0.83400
O2280       O  0.30091137  0.92594223  0.09616445    -0.81700
C2281       C  0.30352962  0.04698402  0.07784560     0.86400
O2282       O  0.30159515  0.98042058  0.08285472    -0.88900
O2283       O  0.32422439  0.00169573  0.04324743    -0.89000
O2284       O  0.32799987  0.96581250  0.03474678    -0.76000
Mg2285     Mg  0.34580464  0.05098700  0.10138781     1.58000
O2286       O  0.34946270  0.07242418  0.04161551    -0.83400
H2287       H  0.32336375  0.99794612  0.14637519    -0.07100
O2288       O  0.34607667  0.95621614  0.08485717    -0.88700
H2289       H  0.37031744  0.94908550  0.06127727    -0.07000
H2290       H  0.27287909  0.98088656  0.10227815    -0.07100
C2291       C  0.36549179  0.95931522  0.07581187     0.86400
C2292       C  0.33346046  0.00485880  0.13262686     0.87000
C2293       C  0.29076797  0.97662842  0.10108021     0.87100
H2294       H  0.33874333  0.99151863  0.01410867    -0.07100
O2295       O  0.37261130  0.02724627  0.05330153    -0.76100
Mg2296     Mg  0.31366135  0.94762839  0.06695661     1.58000
H2297       H  0.39927642  0.02408172  0.07482899    -0.07100
C2298       C  0.39499264  0.95464818  0.13405200     0.92000
O2299       O  0.32892962  0.91893131  0.12054120    -0.83400
C2300       C  0.31017852  0.91351406  0.11119478     0.92100
O2301       O  0.36879564  0.06125563  0.13109334    -0.83300
Mg2302     Mg  0.33721667  0.03593608  0.04105014     1.58200
O2303       O  0.37727321  0.94444101  0.12677266    -0.81700
O2304       O  0.28100554  0.01772120  0.01993450    -0.83400
O2305       O  0.25296356  0.29546740  0.67641797    -0.89000
C2306       C  0.22783599  0.35280045  0.71172115     0.87100
Mg2307     Mg  0.28708955  0.29262784  0.66218630     1.58100
O2308       O  0.20708425  0.33705264  0.65656262    -0.88700
O2309       O  0.21694274  0.28680393  0.67423698    -0.76000
C2310       C  0.29872562  0.39753653  0.62203890     0.92100
O2311       O  0.28656555  0.32345036  0.71256696    -0.75800
O2312       O  0.31245594  0.38357102  0.63143977    -0.83300
Mg2313     Mg  0.25280200  0.30453608  0.71245977     1.58000
C2314       C  0.20583506  0.38812254  0.60924428     0.92000
O2315       O  0.22193457  0.28388022  0.71948360    -0.81600
H2316       H  0.19789335  0.31480285  0.63179045    -0.06900
C2317       C  0.25662381  0.38363588  0.66973675     0.87000
O2318       O  0.27781995  0.30461566  0.62662380    -0.76100
O2319       O  0.23196609  0.33505567  0.70028998    -0.88900
O2320       O  0.19491503  0.37952860  0.62587610    -0.81700
C2321       C  0.16426722  0.36284441  0.69201005     0.92200
C2322       C  0.20814466  0.29264325  0.73337240     0.92000
Mg2323     Mg  0.25085516  0.36538452  0.62214494     1.58000
O2324       O  0.27769608  0.39303513  0.61963798    -0.81600
O2325       O  0.22302974  0.33677125  0.62229592    -0.75900
O2326       O  0.17687015  0.34804119  0.70143461    -0.81700
O2327       O  0.26959669  0.27175581  0.71881324    -0.83400
O2328       O  0.33067311  0.32948582  0.63834374    -0.81700
C2329       C  0.20880046  0.32880597  0.63668953     0.86400
O2330       O  0.27516297  0.34086891  0.63320152    -0.88900
O2331       O  0.24342665  0.37438852  0.65604322    -0.89000
O2332       O  0.27739912  0.37759828  0.67196699    -0.76000
Mg2333     Mg  0.19884117  0.31901235  0.68873320     1.58000
O2334       O  0.16984777  0.37249146  0.67350905    -0.83400
H2335       H  0.24230466  0.26614588  0.66269827    -0.07100
O2336       O  0.29398844  0.32597820  0.67660292    -0.88700
H2337       H  0.31578406  0.33708126  0.70021865    -0.07000
H2338       H  0.27388066  0.32777040  0.60135014    -0.07100
C2339       C  0.29970273  0.32894802  0.69649420     0.86400
C2340       C  0.23779342  0.28217622  0.67050799     0.87000
C2341       C  0.27614327  0.32465050  0.61935621     0.87100
H2342       H  0.25011671  0.39695712  0.68063040    -0.07100
O2343       O  0.21821367  0.36972064  0.70210579    -0.76100
Mg2344     Mg  0.30314260  0.35316769  0.65460444     1.58000
H2345       H  0.23214391  0.35351822  0.72961148    -0.07100
C2346       C  0.28443248  0.26101106  0.70745387     0.92000
O2347       O  0.32349451  0.29323750  0.64857719    -0.83400
C2348       C  0.33627568  0.30842573  0.63946663     0.92100
O2349       O  0.19301934  0.30557602  0.72533289    -0.83300
Mg2350     Mg  0.20732653  0.37400919  0.66359161     1.58200
O2351       O  0.29714437  0.27074274  0.69274195    -0.81700
O2352       O  0.22704293  0.39097578  0.61018060    -0.83400
O2353       O  0.31781118  0.20579638  0.74469593    -0.89000
C2354       C  0.28814096  0.14568751  0.76870793     0.87100
Mg2355     Mg  0.33154590  0.20937399  0.71060915     1.58100
O2356       O  0.34261567  0.16482619  0.78941544    -0.88700
O2357       O  0.32075563  0.21391822  0.78074513    -0.76000
C2358       C  0.38099688  0.11012715  0.69586207     0.92100
O2359       O  0.28426107  0.17557653  0.71111255    -0.75800
O2360       O  0.36965727  0.12353137  0.68317689    -0.83300
Mg2361     Mg  0.28252057  0.19482872  0.74478057     1.58000
C2362       C  0.39498615  0.11721912  0.78964844     0.92000
O2363       O  0.27387597  0.21500824  0.77587491    -0.81600
H2364       H  0.36511335  0.18940115  0.79850685    -0.06900
C2365       C  0.33383136  0.11783501  0.73918881     0.87000
O2366       O  0.36798986  0.20154078  0.72031521    -0.76100
O2367       O  0.29716869  0.16495073  0.76549975    -0.88900
O2368       O  0.37693306  0.12270574  0.80050685    -0.81700
C2369       C  0.30978528  0.13616027  0.83278555     0.92200
C2370       C  0.26193546  0.20487783  0.79055816     0.92000
Mg2371     Mg  0.37964337  0.14127910  0.74443131     1.58000
O2372       O  0.38452630  0.11408021  0.71689006    -0.81600
O2373       O  0.37636070  0.16914582  0.77270460    -0.75900
O2374       O  0.29829457  0.15022270  0.82097487    -0.81700
O2375       O  0.27480837  0.22781729  0.72761393    -0.83400
O2376       O  0.35786717  0.17571307  0.66517896    -0.81700
C2377       C  0.36150690  0.17514237  0.78743412     0.86400
O2378       O  0.36557728  0.16458095  0.72057824    -0.88900
O2379       O  0.34691266  0.12800184  0.75232136    -0.89000
O2380       O  0.33034822  0.12424748  0.71873560    -0.76000
Mg2381     Mg  0.30897009  0.18060060  0.79859050     1.58000
O2382       O  0.32830514  0.12763323  0.82547385    -0.83400
H2383       H  0.32989718  0.23578483  0.75544955    -0.07100
O2384       O  0.32044759  0.17502197  0.70389202    -0.88700
H2385       H  0.29763149  0.16179574  0.68241008    -0.07000
H2386       H  0.39572883  0.18116100  0.72263344    -0.07100
C2387       C  0.30077385  0.17057041  0.69827202     0.86400
C2388       C  0.32333952  0.21918814  0.75990151     0.87000
C2389       C  0.37746607  0.18235819  0.72050922     0.87100
H2390       H  0.32445659  0.10334382  0.74555862    -0.07100
O2391       O  0.29991073  0.12950202  0.77718620    -0.76100
Mg2392     Mg  0.34443344  0.15069004  0.69319250     1.58000
H2393       H  0.27040145  0.14299568  0.76452457    -0.07100
C2394       C  0.28647645  0.23658438  0.71169418     0.92000
O2395       O  0.34495995  0.21024025  0.67509287    -0.83400
C2396       C  0.35496458  0.19690710  0.66115693     0.92100
O2397       O  0.27202754  0.19226618  0.80480055    -0.83300
Mg2398     Mg  0.33870041  0.12734582  0.78813184     1.58200
O2399       O  0.29860638  0.22419395  0.69882478    -0.81700
O2400       O  0.39605587  0.11826958  0.76823209    -0.83400
O2401       O  0.17984371  0.25361533  0.78925868    -0.89000
C2402       C  0.21088225  0.22798361  0.84842025     0.87100
Mg2403     Mg  0.16547418  0.28830328  0.78782666     1.58100
O2404       O  0.15581858  0.20549657  0.83087647    -0.88700
O2405       O  0.17647296  0.21745368  0.78136532    -0.76000
C2406       C  0.11766015  0.29572452  0.89034606     0.92100
O2407       O  0.21350703  0.28705260  0.81925677    -0.75800
O2408       O  0.12841667  0.30963564  0.87755954    -0.83300
Mg2409     Mg  0.21564122  0.25357248  0.79944845     1.58000
C2410       C  0.10549362  0.20297867  0.88044027     0.92000
O2411       O  0.22602708  0.22200697  0.78002416    -0.81600
H2412       H  0.13348392  0.19741100  0.80583869    -0.06900
C2413       C  0.16557554  0.25407004  0.87891265     0.87000
O2414       O  0.12924471  0.27810224  0.79670516    -0.76100
O2415       O  0.20123688  0.23190931  0.82958944    -0.88900
O2416       O  0.12373465  0.19225834  0.87520740    -0.81700
C2417       C  0.19251558  0.16330697  0.85808935     0.92200
C2418       C  0.23667752  0.20656386  0.79067581     0.92000
Mg2419     Mg  0.11944684  0.24924670  0.85595553     1.58000
O2420       O  0.11476443  0.27497498  0.88482282    -0.81600
O2421       O  0.12228965  0.22255192  0.82686414    -0.75900
O2422       O  0.20157119  0.17616112  0.84322540    -0.81700
O2423       O  0.22223770  0.27186119  0.76542704    -0.83400
O2424       O  0.13926175  0.33030865  0.82545311    -0.81700
C2425       C  0.13702873  0.20793015  0.82052902     0.86400
O2426       O  0.13302339  0.27431928  0.83343282    -0.88900
O2427       O  0.15234502  0.24112486  0.86868836    -0.89000
O2428       O  0.16866227  0.27478537  0.87318223    -0.76000
Mg2429     Mg  0.18912036  0.19864273  0.81398477     1.58000
O2430       O  0.17358591  0.16831339  0.86740189    -0.83400
H2431       H  0.16682374  0.24273606  0.75970660    -0.07100
O2432       O  0.17722889  0.29278402  0.82249346    -0.88700
H2433       H  0.20004857  0.31465766  0.83507500    -0.07000
H2434       H  0.10230227  0.27343439  0.81782644    -0.07100
C2435       C  0.19691418  0.29897149  0.82599302     0.86400
C2436       C  0.17385806  0.23833326  0.77611257     0.87000
C2437       C  0.12049827  0.27584985  0.81615632     0.87100
H2438       H  0.17549394  0.24728329  0.89282216    -0.07100
O2439       O  0.19988037  0.21820142  0.86448463    -0.76100
Mg2440     Mg  0.15355562  0.30143285  0.84856946     1.58000
H2441       H  0.22856328  0.23258391  0.85081457    -0.07100
C2442       C  0.20986057  0.28811975  0.75820301     0.92000
O2443       O  0.15166009  0.32484264  0.78963416    -0.83400
C2444       C  0.14169128  0.33696839  0.80484454     0.92100
O2445       O  0.22534591  0.19247085  0.80222137    -0.83300
Mg2446     Mg  0.16151259  0.20564164  0.86837464     1.58200
O2447       O  0.19872718  0.30024943  0.77232786    -0.81700
O2448       O  0.10359643  0.22416089  0.87769703    -0.83400
O2449       O  0.46058954  0.07034103  0.25239890    -0.89000
C2450       C  0.40057289  0.03907827  0.23086886     0.87100
Mg2451     Mg  0.46287733  0.08521803  0.28619386     1.58100
O2452       O  0.41802839  0.09385471  0.20918321    -0.88700
O2453       O  0.46778206  0.07297460  0.21615340    -0.76000
C2454       C  0.36034723  0.13049579  0.30042528     0.92100
O2455       O  0.43270294  0.03701351  0.28806197    -0.75800
O2456       O  0.37423621  0.12009257  0.31348771    -0.83300
Mg2457     Mg  0.45132203  0.03463398  0.25393498     1.58000
C2458       C  0.36947781  0.14495447  0.20607251     0.92000
O2459       O  0.46976461  0.02488352  0.22175856    -0.81600
H2460       H  0.44144907  0.11701518  0.19865632    -0.06900
C2461       C  0.37081663  0.08506482  0.25798963     0.87000
O2462       O  0.45347164  0.12093036  0.27525028    -0.76100
O2463       O  0.42005246  0.04800050  0.23334642    -0.88900
O2464       O  0.37640847  0.12674081  0.19646465    -0.81700
C2465       C  0.38837155  0.05903090  0.16638465     0.92200
C2466       C  0.45877134  0.01352281  0.20710258     0.92000
Mg2467     Mg  0.39236590  0.13159208  0.25215484     1.58000
O2468       O  0.36472921  0.13463167  0.27956121    -0.81600
O2469       O  0.42063725  0.12870662  0.22389290    -0.75900
O2470       O  0.40313978  0.04827976  0.17805474    -0.81700
O2471       O  0.48616876  0.02936526  0.27132293    -0.83400
O2472       O  0.42732475  0.10989434  0.33198689    -0.81700
C2473       C  0.42739842  0.11333493  0.20999827     0.86400
O2474       O  0.41624351  0.11917060  0.27671338    -0.88900
O2475       O  0.38111196  0.09815562  0.24503395    -0.89000
O2476       O  0.37720967  0.08141985  0.27835026    -0.76000
Mg2477     Mg  0.43407308  0.06041107  0.19957411     1.58000
O2478       O  0.38043657  0.07796505  0.17304990    -0.83400
H2479       H  0.49011630  0.08284636  0.24076789    -0.07100
O2480       O  0.42871721  0.07334044  0.29250762    -0.88700
H2481       H  0.41751098  0.05112298  0.31570733    -0.07000
H2482       H  0.43332897  0.14875882  0.27243104    -0.07100
C2483       C  0.42594138  0.05385726  0.29957246     0.86400
C2484       C  0.47352578  0.07593778  0.23681603     0.87000
C2485       C  0.43432852  0.13062243  0.27542410     0.87100
H2486       H  0.35639972  0.07568104  0.25146900    -0.07100
O2487       O  0.38419280  0.05063194  0.22230503    -0.76100
Mg2488     Mg  0.40315468  0.09633540  0.30350359     1.58000
H2489       H  0.39785244  0.02152366  0.23569641    -0.07100
C2490       C  0.49310554  0.04167513  0.28778058     0.92000
O2491       O  0.46235215  0.09882272  0.32152581    -0.83400
C2492       C  0.44858138  0.10736744  0.33597086     0.92100
O2493       O  0.44613918  0.02408239  0.19324150    -0.83300
Mg2494     Mg  0.38083092  0.08908325  0.20995649     1.58200
O2495       O  0.47881415  0.05295561  0.29943811    -0.81700
O2496       O  0.36837564  0.14668548  0.22747848    -0.83400
O2497       O  0.50532115  0.93114239  0.20765627    -0.89000
C2498       C  0.48006092  0.96127093  0.14790067     0.87100
Mg2499     Mg  0.53938213  0.91630444  0.21030220     1.58100
O2500       O  0.45887597  0.90747934  0.16782386    -0.88700
O2501       O  0.46936499  0.92909188  0.21667377    -0.76000
C2502       C  0.54691864  0.86642824  0.10915180     0.92100
O2503       O  0.53880460  0.96325983  0.17576961    -0.75800
O2504       O  0.56111576  0.87652993  0.12213851    -0.83300
Mg2505     Mg  0.50560871  0.96630462  0.19570087     1.58000
C2506       C  0.45379699  0.85639147  0.11999269     0.92000
O2507       O  0.47506444  0.97707492  0.21626353    -0.81600
H2508       H  0.44773321  0.88527728  0.19184005    -0.06900
C2509       C  0.50650315  0.91504623  0.11924698     0.87000
O2510       O  0.52836383  0.88012639  0.20232013    -0.76100
O2511       O  0.48384712  0.95176764  0.16681429    -0.88900
O2512       O  0.44418576  0.87462361  0.12672388    -0.81700
C2513       C  0.41558589  0.94231486  0.14058170     0.92200
C2514       C  0.45969151  0.98829775  0.20626666     0.92000
Mg2515     Mg  0.50004071  0.86930594  0.14257243     1.58000
O2516       O  0.52604964  0.86422463  0.11444339    -0.81600
O2517       O  0.47262864  0.87255806  0.17125971    -0.75900
O2518       O  0.42905239  0.95241441  0.15410214    -0.81700
O2519       O  0.52382147  0.97429619  0.22780553    -0.83400
O2520       O  0.58097480  0.88790378  0.17483932    -0.81700
C2521       C  0.45910995  0.88830093  0.17766332     0.86400
O2522       O  0.52498935  0.88275030  0.16547200    -0.88900
O2523       O  0.49318494  0.90242825  0.12978149    -0.89000
O2524       O  0.52729978  0.91769123  0.12497914    -0.76000
Mg2525     Mg  0.45097359  0.94085631  0.18369659     1.58000
O2526       O  0.42057601  0.92318467  0.13189083    -0.83400
H2527       H  0.49496464  0.91976323  0.23807635    -0.07100
O2528       O  0.54486945  0.92692579  0.17546272    -0.88700
H2529       H  0.56680465  0.94890104  0.16153802    -0.07000
H2530       H  0.52287314  0.85267130  0.18213329    -0.07100
C2531       C  0.55102735  0.94633989  0.17067884     0.86400
C2532       C  0.49028296  0.92616899  0.22149095     0.87000
C2533       C  0.52589441  0.87080307  0.18318307     0.87100
H2534       H  0.50003597  0.92474499  0.10503514    -0.07100
O2535       O  0.47031385  0.95014379  0.13197568    -0.76100
Mg2536     Mg  0.55307685  0.90233860  0.15045651     1.58000
H2537       H  0.48484560  0.97886181  0.14530357    -0.07100
C2538       C  0.53958054  0.96283000  0.23705438     0.92000
O2539       O  0.57541930  0.90164330  0.21014861    -0.83400
C2540       C  0.58738385  0.89076600  0.19550489     0.92100
O2541       O  0.44509744  0.97751339  0.19477770    -0.83300
Mg2542     Mg  0.45784555  0.91184358  0.13040503     1.58200
O2543       O  0.55194387  0.94930472  0.22548169    -0.81700
O2544       O  0.47513519  0.85410974  0.11968671    -0.83400
O2545       O  0.57474803  0.99909186  0.29549527    -0.89000
C2546       C  0.54063640  0.02180215  0.35401371     0.87100
Mg2547     Mg  0.58898450  0.96526295  0.29219069     1.58100
O2548       O  0.59517591  0.04393622  0.33732369    -0.88700
O2549       O  0.57651489  0.03525990  0.28756952    -0.76000
C2550       C  0.63262035  0.95139093  0.39465656     0.92100
O2551       O  0.53949692  0.96449358  0.32323956    -0.75800
O2552       O  0.62267178  0.93745918  0.38123614    -0.83300
Mg2553     Mg  0.53896505  0.99846028  0.30459789     1.58000
C2554       C  0.64441122  0.04396454  0.38640658     0.92000
O2555       O  0.53174298  0.02955862  0.28433792    -0.81600
H2556       H  0.61880148  0.05275220  0.31368145    -0.06900
C2557       C  0.58458853  0.99272584  0.38350569     0.87000
O2558       O  0.62487717  0.97481177  0.30250675    -0.76100
O2559       O  0.55120774  0.01881669  0.33550983    -0.88900
O2560       O  0.62721620  0.05474754  0.37891051    -0.81700
C2561       C  0.56097762  0.08559734  0.36576889     0.92200
C2562       C  0.51773097  0.04307036  0.29328684     0.92000
Mg2563     Mg  0.63114200  0.99921151  0.36296985     1.58000
O2564       O  0.63490508  0.97231794  0.38989247    -0.81600
O2565       O  0.62914233  0.02732664  0.33481461    -0.75900
O2566       O  0.55006056  0.07408873  0.35095513    -0.81700
O2567       O  0.53283198  0.98187044  0.27136501    -0.83400
O2568       O  0.61310645  0.91927461  0.32752213    -0.81700
C2569       C  0.61452860  0.04185296  0.32788975     0.86400
O2570       O  0.61966627  0.97481682  0.33904384    -0.88900
O2571       O  0.59754131  0.00598162  0.37336180    -0.89000
O2572       O  0.58207204  0.97201928  0.37753876    -0.76000
Mg2573     Mg  0.56224592  0.05241647  0.32049445     1.58000
O2574       O  0.57936097  0.07846684  0.37452400    -0.83400
H2575       H  0.58810462  0.01046323  0.26624901    -0.07100
O2576       O  0.57555177  0.95733135  0.32576797    -0.88700
H2577       H  0.55203191  0.93546160  0.33700092    -0.07000
H2578       H  0.65104879  0.97680161  0.32489261    -0.07100
C2579       C  0.55567237  0.95153769  0.32884312     0.86400
C2580       C  0.58041510  0.01456567  0.28246040     0.87000
C2581       C  0.63291793  0.97478861  0.32229526     0.87100
H2582       H  0.57454955  0.99913946  0.39753643    -0.07100
O2583       O  0.55100850  0.03052225  0.37099081    -0.76100
Mg2584     Mg  0.59830704  0.94694265  0.35196586     1.58000
H2585       H  0.52282683  0.01725489  0.35536222    -0.07100
C2586       C  0.54394863  0.96638701  0.26128716     0.92000
O2587       O  0.60246744  0.92980224  0.29231287    -0.83400
C2588       C  0.61126100  0.91552435  0.30613705     0.92100
O2589       O  0.52541832  0.05761392  0.30718001    -0.83300
Mg2590     Mg  0.58954463  0.04168987  0.37436763     1.58200
O2591       O  0.55821604  0.95391260  0.27175249    -0.81700
O2592       O  0.64414693  0.02266583  0.38824590    -0.83400
O2593       O  0.37809296  0.24604249  0.59469233    -0.89000
C2594       C  0.43166180  0.27726135  0.62793604     0.87100
Mg2595     Mg  0.37796521  0.21066444  0.58544243     1.58100
O2596       O  0.42688631  0.29563632  0.57154150    -0.88700
O2597       O  0.37515872  0.28001826  0.57881834    -0.76000
C2598       C  0.45556337  0.20988447  0.50986462     0.92100
O2599       O  0.41821970  0.22469445  0.62576804    -0.75800
O2600       O  0.44338133  0.19624662  0.52118079    -0.83300
Mg2601     Mg  0.39039011  0.25297741  0.62799483     1.58000
C2602       C  0.49148901  0.28947582  0.54001264     0.92000
O2603       O  0.36312304  0.27989018  0.63238740    -0.81600
H2604       H  0.41595922  0.31903806  0.54944025    -0.06900
C2605       C  0.47140273  0.23958864  0.57351453     0.87000
O2606       O  0.38228909  0.22346267  0.54710866    -0.76100
O2607       O  0.41441353  0.27705969  0.61527389    -0.88900
O2608       O  0.47765292  0.30178744  0.55123938    -0.81700
C2609       C  0.44625423  0.33808764  0.60766191     0.92200
C2610       C  0.35820635  0.30078470  0.62991994     0.92000
Mg2611     Mg  0.44886427  0.25694445  0.53226856     1.58000
O2612       O  0.46687183  0.22488291  0.52052403    -0.81600
O2613       O  0.43069977  0.29124079  0.53519085    -0.75900
O2614       O  0.42522910  0.33259579  0.60962279    -0.81700
O2615       O  0.36635189  0.22926353  0.64266280    -0.83400
O2616       O  0.40144900  0.18146876  0.54522613    -0.81700
C2617       C  0.42416257  0.30279723  0.55209511     0.86400
O2618       O  0.41762716  0.23625322  0.54583291    -0.88900
O2619       O  0.45856492  0.25531410  0.56816067    -0.89000
O2620       O  0.46553195  0.21898573  0.57032865    -0.76000
Mg2621     Mg  0.40079790  0.30518266  0.59482698     1.58000
O2622       O  0.46102127  0.32522135  0.59809790    -0.83400
H2623       H  0.35452801  0.25338820  0.57130611    -0.07100
O2624       O  0.41532750  0.21054497  0.59095071    -0.88700
H2625       H  0.43841593  0.19909883  0.61392910    -0.07000
H2626       H  0.39632674  0.23784565  0.51859958    -0.07100
C2627       C  0.42465867  0.21080085  0.61037669     0.86400
C2628       C  0.36856074  0.25950829  0.58150238     0.87000
C2629       C  0.39862734  0.23297951  0.53620634     0.87100
H2630       H  0.48802818  0.24337077  0.58042343    -0.07100
O2631       O  0.45130519  0.27849206  0.61938890    -0.76100
Mg2632     Mg  0.43189161  0.20234759  0.55764916     1.58000
H2633       H  0.42969013  0.27449291  0.64603956    -0.07100
C2634       C  0.36451616  0.20798655  0.64092506     0.92000
O2635       O  0.37887953  0.17312939  0.57421436    -0.83400
C2636       C  0.38788657  0.16790875  0.55526044     0.92100
O2637       O  0.37152956  0.31455037  0.61960520    -0.83300
Mg2638     Mg  0.46119872  0.28930265  0.58362410     1.58200
O2639       O  0.37094737  0.19731897  0.62306168    -0.81700
O2640       O  0.48384942  0.27390916  0.52697500    -0.83400
O2641       O  0.59832741  0.37192515  0.50814463    -0.89000
C2642       C  0.63122262  0.32038018  0.47463494     0.87100
Mg2643     Mg  0.59009271  0.37157349  0.54404114     1.58100
O2644       O  0.57406625  0.32732360  0.45770709    -0.88700
O2645       O  0.58307709  0.37776063  0.47428929    -0.76000
C2646       C  0.51643084  0.29302217  0.54223260     0.92100
O2647       O  0.62927633  0.33176826  0.52735699    -0.75800
O2648       O  0.52491498  0.30521882  0.55777494    -0.83300
Mg2649     Mg  0.63176297  0.36098635  0.50034388     1.58000
C2650       C  0.53913726  0.26519474  0.46402070     0.92000
O2651       O  0.63559581  0.38933163  0.47410237    -0.81600
H2652       H  0.55094978  0.34120577  0.43700439    -0.06900
C2653       C  0.57786125  0.28106255  0.51208292     0.87000
O2654       O  0.55153506  0.36956306  0.53316391    -0.76100
O2655       O  0.61920890  0.33805422  0.47510118    -0.88900
O2656       O  0.55281916  0.27658539  0.45169253    -0.81700
C2657       C  0.60859391  0.30685010  0.41473263     0.92200
C2658       C  0.63314889  0.39436158  0.45316662     0.92000
Mg2659     Mg  0.53686964  0.30592647  0.49824120     1.58000
O2660       O  0.52999381  0.28428106  0.52818949    -0.81600
O2661       O  0.53796702  0.32647979  0.46539941    -0.75900
O2662       O  0.61168873  0.32799680  0.41918285    -0.81700
O2663       O  0.64645834  0.38439590  0.52530383    -0.83400
O2664       O  0.55131848  0.34638055  0.57498681    -0.81700
C2665       C  0.55430651  0.33189514  0.45250037     0.86400
O2666       O  0.55113016  0.33476386  0.51974703    -0.88900
O2667       O  0.57210662  0.29515149  0.49761904    -0.89000
O2668       O  0.57503628  0.28510872  0.53316491    -0.76000
Mg2669     Mg  0.59799188  0.35247434  0.44793004     1.58000
O2670       O  0.59865411  0.29325577  0.42840978    -0.83400
H2671       H  0.57610438  0.39697389  0.50214521    -0.07100
O2672       O  0.59539452  0.33415274  0.54429395    -0.88700
H2673       H  0.61867791  0.30986811  0.55205555    -0.07000
H2674       H  0.52296977  0.35491592  0.51965674    -0.07100
C2675       C  0.61460027  0.32454072  0.54172968     0.86400
C2676       C  0.58569583  0.38287672  0.49524182     0.87000
C2677       C  0.54082199  0.35316118  0.52385354     0.87100
H2678       H  0.58484152  0.26490270  0.50674971    -0.07100
O2679       O  0.62188746  0.30114165  0.47357706    -0.76100
Mg2680     Mg  0.56224945  0.31738192  0.55221498     1.58000
H2681       H  0.64945155  0.32164075  0.47700953    -0.07100
C2682       C  0.64524717  0.38260845  0.54664668     0.92000
O2683       O  0.57955185  0.37074751  0.58148386    -0.83400
C2684       C  0.56086649  0.36146376  0.58718750     0.92100
O2685       O  0.62323747  0.38104270  0.43911065    -0.83300
Mg2686     Mg  0.58549439  0.29285936  0.46369736     1.58200
O2687       O  0.62749356  0.37517411  0.55657789    -0.81700
O2688       O  0.52828276  0.27431704  0.48021512    -0.83400
O2689       O  0.49511134  0.12804739  0.40551573    -0.89000
C2690       C  0.52653239  0.17947144  0.37052754     0.87100
Mg2691     Mg  0.45914226  0.12794875  0.41247573     1.58100
O2692       O  0.54349562  0.17772091  0.42796699    -0.88700
O2693       O  0.52836541  0.12598476  0.42297116    -0.76000
C2694       C  0.45576469  0.20809843  0.48456837     0.92100
O2695       O  0.47424754  0.16567548  0.37187225    -0.75800
O2696       O  0.44133974  0.19561267  0.47459371    -0.83300
Mg2697     Mg  0.50295797  0.13786567  0.37181995     1.58000
C2698       C  0.53491545  0.24125524  0.45923987     0.92000
O2699       O  0.53052560  0.11095715  0.36960161    -0.81600
H2700       H  0.56550488  0.16690035  0.45148840    -0.06900
C2701       C  0.48694537  0.22068489  0.42218328     0.87000
O2702       O  0.46910160  0.13213782  0.45134270    -0.76100
O2703       O  0.52622262  0.16281997  0.38390157    -0.88900
O2704       O  0.54749840  0.23076159  0.44505321    -0.81700
C2705       C  0.58618969  0.19599214  0.39136638     0.92200
C2706       C  0.55145269  0.10719701  0.37351276     0.92000
Mg2707     Mg  0.50202568  0.19827833  0.46409672     1.58000
O2708       O  0.47051017  0.21805292  0.47246730    -0.81600
O2709       O  0.53607184  0.17994360  0.46393017    -0.75900
O2710       O  0.58086774  0.17489651  0.39051872    -0.81700
O2711       O  0.48015218  0.11200540  0.35862257    -0.83400
O2712       O  0.42578691  0.15256485  0.45049008    -0.81700
C2713       C  0.54928226  0.17476032  0.44782557     0.86400
O2714       O  0.48149169  0.16744094  0.45133822    -0.88900
O2715       O  0.50236333  0.20774733  0.42816777    -0.89000
O2716       O  0.46616612  0.21531706  0.42525182    -0.76000
Mg2717     Mg  0.55365652  0.15109101  0.40632544     1.58000
O2718       O  0.57317152  0.21109474  0.40023006    -0.83400
H2719       H  0.50147549  0.10556231  0.43022244    -0.07100
O2720       O  0.45869492  0.16495891  0.40629556    -0.88700
H2721       H  0.44844286  0.18678409  0.38157518    -0.07000
H2722       H  0.48165977  0.14778888  0.47983843    -0.07100
C2723       C  0.45987740  0.17319116  0.38638570     0.86400
C2724       C  0.50800366  0.11915786  0.41969367     0.87000
C2725       C  0.47778754  0.14906252  0.46188209     0.87100
H2726       H  0.49115068  0.23701768  0.41485021    -0.07100
O2727       O  0.52727158  0.19939702  0.37829779    -0.76100
Mg2728     Mg  0.44837375  0.18243828  0.43849532     1.58000
H2729       H  0.52432698  0.17672526  0.35244990    -0.07100
C2730       C  0.45889767  0.11437775  0.35752754     0.92000
O2731       O  0.42167234  0.12881977  0.42141560    -0.83400
C2732       C  0.41413601  0.13797713  0.43947930     0.92100
O2733       O  0.56408127  0.12138891  0.38394281    -0.83300
Mg2734     Mg  0.53666638  0.21096243  0.41390921     1.58200
O2735       O  0.44763175  0.12247739  0.37422838    -0.81700
O2736       O  0.51898540  0.23143617  0.47004640    -0.83400
O2737       O  0.17729804  0.99906776  0.45501582    -0.89000
C2738       C  0.21135045  0.01974329  0.39580312     0.87100
Mg2739     Mg  0.16329398  0.96537211  0.45926461     1.58100
O2740       O  0.15667510  0.04183045  0.41135119    -0.88700
O2741       O  0.17495352  0.03546266  0.46161045    -0.76000
C2742       C  0.11909451  0.94675387  0.35752394     0.92100
O2743       O  0.21288608  0.96371540  0.42871181    -0.75800
O2744       O  0.13016833  0.93442372  0.37156586    -0.83300
Mg2745     Mg  0.21311998  0.99831550  0.44623191     1.58000
C2746       C  0.10719824  0.04063696  0.36215604     0.92000
O2747       O  0.21966734  0.03020993  0.46530451    -0.81600
H2748       H  0.13281538  0.05176008  0.43430548    -0.06900
C2749       C  0.16726511  0.98967320  0.36658978     0.87000
O2750       O  0.12747074  0.97453709  0.44844752    -0.76100
O2751       O  0.20091813  0.01745428  0.41449936    -0.88900
O2752       O  0.12458407  0.05159208  0.36909419    -0.81700
C2753       C  0.19099004  0.08342322  0.38252187     0.92200
C2754       C  0.23369707  0.04346997  0.45602957     0.92000
Mg2755     Mg  0.12034307  0.99641347  0.38680360     1.58000
O2756       O  0.11589273  0.96794024  0.36068648    -0.81600
O2757       O  0.12251612  0.02563466  0.41396017    -0.75900
O2758       O  0.20201408  0.07195104  0.39723655    -0.81700
O2759       O  0.21905824  0.98296471  0.48021656    -0.83400
O2760       O  0.13967858  0.91817809  0.42546565    -0.81700
C2761       C  0.13717163  0.04029806  0.42056381     0.86400
O2762       O  0.13210574  0.97305239  0.41177254    -0.88900
O2763       O  0.15401105  0.00319029  0.37594807    -0.89000
O2764       O  0.17013581  0.96937990  0.37365483    -0.76000
Mg2765     Mg  0.18942310  0.05145637  0.42822751     1.58000
O2766       O  0.17270605  0.07601033  0.37370427    -0.83400
H2767       H  0.16349909  0.01130436  0.48370623    -0.07100
O2768       O  0.17680801  0.95676174  0.42595354    -0.88700
H2769       H  0.20026034  0.93439567  0.41558914    -0.07000
H2770       H  0.10100507  0.97587068  0.42637876    -0.07100
C2771       C  0.19666835  0.95073355  0.42324345     0.86400
C2772       C  0.17130172  0.01492125  0.46743547     0.87000
C2773       C  0.11915800  0.97381732  0.42876425     0.87100
H2774       H  0.17731361  0.99554573  0.35233241    -0.07100
O2775       O  0.20087438  0.02776312  0.37853375    -0.76100
Mg2776     Mg  0.15420517  0.94521135  0.40020059     1.58000
H2777       H  0.22915603  0.01517590  0.39451621    -0.07100
C2778       C  0.20781860  0.96758952  0.49033981     0.92000
O2779       O  0.15013028  0.92995323  0.46030566    -0.83400
C2780       C  0.14155914  0.91513202  0.44694512     0.92100
O2781       O  0.22605400  0.05758785  0.44171377    -0.83300
Mg2782     Mg  0.16235339  0.03892964  0.37439146     1.58200
O2783       O  0.19423813  0.95457328  0.47961645    -0.81700
O2784       O  0.10722795  0.01925637  0.36099997    -0.83400
O2785       O  0.24475951  0.93403473  0.54634874    -0.89000
C2786       C  0.26909618  0.96531464  0.60604393     0.87100
Mg2787     Mg  0.21087896  0.91907828  0.54363855     1.58100
O2788       O  0.28840286  0.91123528  0.58664268    -0.88700
O2789       O  0.28067026  0.93231048  0.53740649    -0.76000
C2790       C  0.19878232  0.87244361  0.64590413     0.92100
O2791       O  0.21072938  0.96744257  0.57635723    -0.75800
O2792       O  0.18608049  0.88352214  0.63226114    -0.83300
Mg2793     Mg  0.24431774  0.96958011  0.55708033     1.58000
C2794       C  0.29320546  0.85952451  0.63399634     0.92000
O2795       O  0.27522444  0.97936594  0.53663822    -0.81600
H2796       H  0.29941704  0.88796183  0.56356265    -0.06900
C2797       C  0.24136996  0.92008256  0.63539435     0.87000
O2798       O  0.22163605  0.88329593  0.55328291    -0.76100
O2799       O  0.26556170  0.95604326  0.58692460    -0.88900
O2800       O  0.30284633  0.87731992  0.62618532    -0.81700
C2801       C  0.33354905  0.94418431  0.61331990     0.92200
C2802       C  0.29027886  0.99119902  0.54640644     0.92000
Mg2803     Mg  0.24713238  0.87330346  0.61400333     1.58000
O2804       O  0.21985557  0.86892119  0.64192662    -0.81600
O2805       O  0.27490798  0.87599634  0.58512283    -0.75900
O2806       O  0.32067148  0.95593370  0.60055714    -0.81700
O2807       O  0.22682500  0.97640306  0.52428654    -0.83400
O2808       O  0.16818644  0.89275292  0.57960376    -0.81700
C2809       C  0.28816651  0.89159415  0.57769701     0.86400
O2810       O  0.22271465  0.88604414  0.59033550    -0.88900
O2811       O  0.25430215  0.90676396  0.62529393    -0.89000
O2812       O  0.22083980  0.92344463  0.62920480    -0.76000
Mg2813     Mg  0.29839354  0.94443350  0.57060802     1.58000
O2814       O  0.32696221  0.92537548  0.62160361    -0.83400
H2815       H  0.25522938  0.92236405  0.51607072    -0.07100
O2816       O  0.20487078  0.93112861  0.57790837    -0.88700
H2817       H  0.18243814  0.95346081  0.59038102    -0.07000
H2818       H  0.22570534  0.85594494  0.57387306    -0.07100
C2819       C  0.19846335  0.95066159  0.58175624     0.86400
C2820       C  0.25982576  0.92901099  0.53259286     0.87000
C2821       C  0.22279774  0.87407648  0.57259167     0.87100
H2822       H  0.24801111  0.92983415  0.64950332    -0.07100
O2823       O  0.27823819  0.95387789  0.62213929    -0.76100
Mg2824     Mg  0.19548404  0.90779190  0.60363445     1.58000
H2825       H  0.26463081  0.98298013  0.60867992    -0.07100
C2826       C  0.21139650  0.96464245  0.51481719     0.92000
O2827       O  0.17490617  0.90441256  0.54378797    -0.83400
C2828       C  0.16249241  0.89440521  0.55867120     0.92100
O2829       O  0.30464971  0.98108256  0.55881366    -0.83300
Mg2830     Mg  0.28982625  0.91523647  0.62380931     1.58200
O2831       O  0.19876136  0.95124348  0.52627632    -0.81700
O2832       O  0.27207010  0.85907554  0.63791389    -0.83400
O2833       O  0.29008618  0.07173959  0.49679602    -0.89000
C2834       C  0.34949945  0.04092873  0.51959411     0.87100
Mg2835     Mg  0.28877625  0.08586986  0.46277987     1.58100
O2836       O  0.33239497  0.09631777  0.53897759    -0.88700
O2837       O  0.28211729  0.07601438  0.53268094    -0.76000
C2838       C  0.39204803  0.13075440  0.44868301     0.92100
O2839       O  0.31852554  0.03754917  0.46237675    -0.75800
O2840       O  0.37822561  0.11983534  0.43593765    -0.83300
Mg2841     Mg  0.29934723  0.03595378  0.49621893     1.58000
C2842       C  0.38150656  0.14710181  0.54291637     0.92000
O2843       O  0.28038518  0.02668329  0.52839609    -0.81600
H2844       H  0.30998664  0.12019098  0.55010782    -0.06900
C2845       C  0.38075186  0.08592749  0.49244743     0.87000
O2846       O  0.29851338  0.12167395  0.47329767    -0.76100
O2847       O  0.33013221  0.04996215  0.51658868    -0.88900
O2848       O  0.37403862  0.12929085  0.55298835    -0.81700
C2849       C  0.36013128  0.06056829  0.58291725     0.92200
C2850       C  0.29107925  0.01634718  0.54400559     0.92000
Mg2851     Mg  0.35978201  0.13287568  0.49686465     1.58000
O2852       O  0.38768816  0.13528967  0.46948405    -0.81600
O2853       O  0.33119778  0.13138458  0.52495096    -0.75900
O2854       O  0.34574757  0.05100033  0.57002171    -0.81700
O2855       O  0.26497694  0.03022802  0.47845347    -0.83400
O2856       O  0.32509228  0.10960872  0.41698111    -0.81700
C2857       C  0.32382977  0.11613689  0.53863816     0.86400
O2858       O  0.33582710  0.12011490  0.47231365    -0.88900
O2859       O  0.37063427  0.09951368  0.50504074    -0.89000
O2860       O  0.37444553  0.08194410  0.47210223    -0.76000
Mg2861     Mg  0.31555691  0.06364334  0.54952307     1.58000
O2862       O  0.36840830  0.07994910  0.57805288    -0.83400
H2863       H  0.26035774  0.08482781  0.50720511    -0.07100
O2864       O  0.32301513  0.07374920  0.45737900    -0.88700
H2865       H  0.33446078  0.05098197  0.43482231    -0.07000
H2866       H  0.31852068  0.14959875  0.47629842    -0.07100
C2867       C  0.32573584  0.05410613  0.45072928     0.86400
C2868       C  0.27680917  0.07801784  0.51181894     0.87000
C2869       C  0.31764492  0.13144140  0.47337713     0.87100
H2870       H  0.39494021  0.07643652  0.49927903    -0.07100
O2871       O  0.36586617  0.05245973  0.52829599    -0.76100
Mg2872     Mg  0.34892218  0.09645388  0.44617928     1.58000
H2873       H  0.35214385  0.02328452  0.51505326    -0.07100
C2874       C  0.25825379  0.04225215  0.46172361     0.92000
O2875       O  0.28996143  0.09871793  0.42724007    -0.83400
C2876       C  0.30386097  0.10700594  0.41278919     0.92100
O2877       O  0.30318200  0.02785719  0.55754654    -0.83300
Mg2878     Mg  0.36953678  0.09104199  0.54041597     1.58200
O2879       O  0.27265563  0.05337192  0.45001191    -0.81700
O2880       O  0.38384433  0.14778687  0.52154069    -0.83400
O2881       O  0.90334631  0.25386523  0.11911424    -0.89000
C2882       C  0.87122283  0.22189668  0.06581295     0.87100
Mg2883     Mg  0.91216603  0.28911970  0.11788799     1.58100
O2884       O  0.92818506  0.20432379  0.07066494    -0.88700
O2885       O  0.92091618  0.22071689  0.12193384    -0.76000
C2886       C  0.98926797  0.28971770  0.04193766     0.92100
O2887       O  0.87217133  0.27414464  0.07890184    -0.75800
O2888       O  0.97762538  0.30336303  0.05380975    -0.83300
Mg2889     Mg  0.87004073  0.24620502  0.10745122     1.58000
C2890       C  0.95982241  0.20906932  0.00670922     0.92000
O2891       O  0.86713412  0.21907552  0.13545664    -0.81600
H2892       H  0.94994858  0.18069052  0.08179761    -0.06900
C2893       C  0.92612331  0.25906316  0.02544475     0.87000
O2894       O  0.95077926  0.27640498  0.11482763    -0.76100
O2895       O  0.88325387  0.22193083  0.08354353    -0.88900
O2896       O  0.94877872  0.19696701  0.02085682    -0.81700
C2897       C  0.89214529  0.16083494  0.05241787     0.92200
C2898       C  0.87152375  0.19830092  0.13993344     0.92000
Mg2899     Mg  0.96727088  0.24236771  0.04868739     1.58000
O2900       O  0.97890886  0.27448310  0.03064244    -0.81600
O2901       O  0.96458827  0.20825666  0.06703483    -0.75900
O2902       O  0.89059753  0.16685239  0.07329370    -0.81700
O2903       O  0.85463879  0.27101789  0.13112027    -0.83400
O2904       O  0.95305759  0.31780596  0.09522318    -0.81700
C2905       C  0.94752902  0.19692385  0.07351013     0.86400
O2906       O  0.95321148  0.26319269  0.07963674    -0.88900
O2907       O  0.93140575  0.24358853  0.03859673    -0.89000
O2908       O  0.92908599  0.27976088  0.03105614    -0.76000
Mg2909     Mg  0.90543628  0.19490587  0.09678473     1.58000
O2910       O  0.90158456  0.17332673  0.03723470    -0.83400
H2911       H  0.92707745  0.24760597  0.14263636    -0.07100
O2912       O  0.90751486  0.28735519  0.08069963    -0.88700
H2913       H  0.88431462  0.29899808  0.05788886    -0.07000
H2914       H  0.97977625  0.26198177  0.10181206    -0.07100
C2915       C  0.88785487  0.28746265  0.07178239     0.86400
C2916       C  0.91714483  0.24101046  0.12863419     0.87000
C2917       C  0.96222202  0.26674462  0.09891084     0.87100
H2918       H  0.91950967  0.25497998  0.00877785    -0.07100
O2919       O  0.88032786  0.22050854  0.04640641    -0.76100
Mg2920     Mg  0.94103447  0.29665524  0.06477396     1.58000
H2921       H  0.85309065  0.22488838  0.06718187    -0.07100
C2922       C  0.85591592  0.29242277  0.12939358     0.92000
O2923       O  0.92320335  0.32673244  0.11628881    -0.83400
C2924       C  0.94271829  0.33155677  0.10831593     0.92100
O2925       O  0.88217796  0.18539291  0.12613144    -0.83300
Mg2926     Mg  0.91605686  0.20951118  0.03648880     1.58200
O2927       O  0.87400725  0.30220659  0.12216917    -0.81700
O2928       O  0.97278655  0.22492134  0.01392976    -0.83400
O2929       O  0.99191716  0.12590797  0.90087624    -0.89000
C2930       C  0.02586167  0.17680993  0.86810866     0.87100
Mg2931     Mg  0.95581245  0.12512229  0.90913651     1.58100
O2932       O  0.04208898  0.17197319  0.92496322    -0.88700
O2933       O  0.02583555  0.12122867  0.91640651    -0.76000
C2934       C  0.95731430  0.20499512  0.98191424     0.92100
O2935       O  0.97373523  0.16711555  0.87140572    -0.75800
O2936       O  0.94220841  0.19190215  0.97400866    -0.83300
Mg2937     Mg  0.00047038  0.13809326  0.86808231     1.58000
C2938       C  0.03481119  0.23517650  0.95867824     0.92000
O2939       O  0.02628031  0.10971070  0.86335920    -0.81600
H2940       H  0.06344242  0.15918184  0.94813043    -0.06900
C2941       C  0.98660163  0.21651004  0.92007296     0.87000
O2942       O  0.96712862  0.12826947  0.94761985    -0.76100
O2943       O  0.02549248  0.15966666  0.88003496    -0.88900
O2944       O  0.04728457  0.22411064  0.94485128    -0.81700
C2945       C  0.08498819  0.19219873  0.88989279     0.92200
C2946       C  0.04730235  0.10502097  0.86570277     0.92000
Mg2947     Mg  0.00130120  0.19313095  0.96148952     1.58000
O2948       O  0.97075714  0.21400800  0.96793468    -0.81600
O2949       O  0.03475944  0.17346296  0.96104293    -0.75900
O2950       O  0.08042793  0.17105895  0.88699576    -0.81700
O2951       O  0.97530882  0.11605234  0.85228649    -0.83400
O2952       O  0.92468263  0.14986810  0.94837982    -0.81700
C2953       C  0.04764852  0.16797902  0.94473177     0.86400
O2954       O  0.98036921  0.16315641  0.94756309    -0.88900
O2955       O  0.00168731  0.20321153  0.92616155    -0.89000
O2956       O  0.96566249  0.21171818  0.92313115    -0.76000
Mg2957     Mg  0.05175171  0.14666641  0.90108427     1.58000
O2958       O  0.07132686  0.20589795  0.89978578    -0.83400
H2959       H  0.99840792  0.10152374  0.92368346    -0.07100
O2960       O  0.95351932  0.16257702  0.90332932    -0.88700
H2961       H  0.94841569  0.18854132  0.88123828    -0.07000
H2962       H  0.98099425  0.14322066  0.97585820    -0.07100
C2963       C  0.95811950  0.17341317  0.88517438     0.86400
C2964       C  0.00502223  0.11556127  0.91380629     0.87000
C2965       C  0.97655562  0.14480243  0.95805612     0.87100
H2966       H  0.99124552  0.23266263  0.91261001    -0.07100
O2967       O  0.02633519  0.19625224  0.87703067    -0.76100
Mg2968     Mg  0.94708168  0.17933598  0.93678187     1.58000
H2969       H  0.02378874  0.17521076  0.84990116    -0.07100
C2970       C  0.95392849  0.11443916  0.85342714     0.92000
O2971       O  0.91840165  0.12506889  0.92038559    -0.83400
C2972       C  0.91263973  0.13445605  0.93904056     0.92100
O2973       O  0.06107283  0.11828354  0.87601360    -0.83300
Mg2974     Mg  0.03574017  0.20602649  0.91285788     1.58200
O2975       O  0.94298045  0.11955020  0.87147307    -0.81700
O2976       O  0.01861340  0.22573354  0.96932905    -0.83400
O2977       O  0.09762883  0.37083083  0.00517435    -0.89000
C2978       C  0.13011530  0.31832188  0.97260844     0.87100
Mg2979     Mg  0.08948892  0.37050801  0.04073051     1.58100
O2980       O  0.07274667  0.32228305  0.95572832    -0.88700
O2981       O  0.08004641  0.37360234  0.97198272    -0.76000
C2982       C  0.01457405  0.29177147  0.04194642     0.92100
O2983       O  0.12887232  0.33103581  0.02524253    -0.75800
O2984       O  0.02441399  0.30446309  0.05628621    -0.83300
Mg2985     Mg  0.13095349  0.35953084  0.99729629     1.58000
C2986       C  0.03945474  0.25919530  0.96313751     0.92000
O2987       O  0.13368412  0.38738783  0.96997697    -0.81600
H2988       H  0.04982476  0.33418786  0.93363372    -0.06900
C2989       C  0.07702979  0.27835357  0.01144771     0.87000
O2990       O  0.05077319  0.36754614  0.02954386    -0.76100
O2991       O  0.11755840  0.33561847  0.97327378    -0.88900
O2992       O  0.05348034  0.26997489  0.95059282    -0.81700
C2993       C  0.10838951  0.30328555  0.91243110     0.92200
C2994       C  0.12933570  0.39164705  0.94913871     0.92000
Mg2995     Mg  0.03571113  0.30187364  0.99629831     1.58000
O2996       O  0.02683220  0.28174931  0.02741020    -0.81600
O2997       O  0.03660713  0.32071727  0.96252761    -0.75900
O2998       O  0.11012516  0.32425172  0.91818558    -0.81700
O2999       O  0.14675142  0.38330964  0.02188281    -0.83400
O3000       O  0.04940107  0.34677120  0.07255751    -0.81700
C3001       C  0.05304779  0.32588805  0.94972187     0.86400
O3002       O  0.04946339  0.33225831  0.01704133    -0.88900
O3003       O  0.07135957  0.29146841  0.99606186    -0.89000
O3004       O  0.07395303  0.28368304  0.03223532    -0.76000
Mg3005     Mg  0.09544653  0.34834520  0.94610210     1.58000
O3006       O  0.09903293  0.28830449  0.92522592    -0.83400
H3007       H  0.07374516  0.39421983  0.99892900    -0.07100
O3008       O  0.09446784  0.33326005  0.04105660    -0.88700
H3009       H  0.11801443  0.30979694  0.05044615    -0.07000
H3010       H  0.02189721  0.35320337  0.01629535    -0.07100
C3011       C  0.11393898  0.32398268  0.03945964     0.86400
C3012       C  0.08374869  0.38026685  0.99232287     0.87000
C3013       C  0.03968884  0.35110344  0.02058073     0.87100
H3014       H  0.08408752  0.26190825  0.00720655    -0.07100
O3015       O  0.12145931  0.29876773  0.97131003    -0.76100
Mg3016     Mg  0.06119720  0.31671441  0.05017350     1.58000
H3017       H  0.14830258  0.32015840  0.97492614    -0.07100
C3018       C  0.14570520  0.38157568  0.04330832     0.92000
O3019       O  0.07890810  0.36980429  0.07787722    -0.83400
C3020       C  0.06013418  0.36131633  0.08450106     0.92100
O3021       O  0.11873499  0.37769266  0.93634002    -0.83300
Mg3022     Mg  0.08549372  0.28836658  0.96175254     1.58200
O3023       O  0.12762757  0.37467092  0.05326331    -0.81700
O3024       O  0.02865770  0.26889587  0.97913452    -0.83400
O3025       O  0.37170847  0.24299581  0.15377173    -0.89000
C3026       C  0.31856154  0.27568936  0.12153404     0.87100
Mg3027     Mg  0.37165823  0.20754019  0.16270160     1.58100
O3028       O  0.32430922  0.29305481  0.17827151    -0.88700
O3029       O  0.37567803  0.27670409  0.17001919    -0.76000
C3030       C  0.29476206  0.20668999  0.23780903     0.92100
O3031       O  0.33101234  0.22294302  0.12284172    -0.75800
O3032       O  0.30579895  0.19225638  0.22637009    -0.83300
Mg3033     Mg  0.35940299  0.25062318  0.12066543     1.58000
C3034       C  0.25981973  0.28769032  0.21065238     0.92000
O3035       O  0.38734779  0.27713465  0.11653414    -0.81600
H3036       H  0.33613933  0.31557611  0.20085429    -0.06900
C3037       C  0.27878352  0.23788160  0.17527697     0.87000
O3038       O  0.36770696  0.21987662  0.20113220    -0.76100
O3039       O  0.33600495  0.27504302  0.13391475    -0.88900
O3040       O  0.27367509  0.29986879  0.19926530    -0.81700
C3041       C  0.30539942  0.33645778  0.14271475     0.92200
C3042       C  0.39250364  0.29796137  0.11934727     0.92000
Mg3043     Mg  0.30187710  0.25387816  0.21686456     1.58000
O3044       O  0.28357814  0.22176124  0.22715878    -0.81600
O3045       O  0.32083077  0.28781577  0.21457032    -0.75900
O3046       O  0.32627104  0.33054212  0.14051200    -0.81700
O3047       O  0.38260036  0.22637532  0.10543277    -0.83400
O3048       O  0.34730949  0.17765413  0.20240833    -0.81700
C3049       C  0.32746759  0.29962751  0.19787711     0.86400
O3050       O  0.33245976  0.23278003  0.20270695    -0.88900
O3051       O  0.29187322  0.25327513  0.18107407    -0.89000
O3052       O  0.28428462  0.21708484  0.17785266    -0.76000
Mg3053     Mg  0.35027920  0.30252577  0.15476662     1.58000
O3054       O  0.29048741  0.32384681  0.15243497    -0.83400
H3055       H  0.39589749  0.24958002  0.17675408    -0.07100
O3056       O  0.33423414  0.20759590  0.15716123    -0.88700
H3057       H  0.31045901  0.19745628  0.13425770    -0.07000
H3058       H  0.35382365  0.23384198  0.22991255    -0.07100
C3059       C  0.32456833  0.20871424  0.13791567     0.86400
C3060       C  0.38179398  0.25610618  0.16692824     0.87000
C3061       C  0.35144869  0.22924933  0.21223691     0.87100
H3062       H  0.26224298  0.24211892  0.16844132    -0.07100
O3063       O  0.29907523  0.27719007  0.13039461    -0.76100
Mg3064     Mg  0.31746019  0.19927660  0.19020330     1.58000
H3065       H  0.32019699  0.27310043  0.10336883    -0.07100
C3066       C  0.38434473  0.20506755  0.10707618     0.92000
O3067       O  0.37103013  0.17008059  0.17404823    -0.83400
C3068       C  0.36204608  0.16490172  0.19303514     0.92100
O3069       O  0.37933605  0.31173544  0.12983769    -0.83300
Mg3070     Mg  0.28975286  0.28762895  0.16642752     1.58200
O3071       O  0.37817050  0.19436964  0.12499190    -0.81700
O3072       O  0.26732939  0.27147315  0.22293844    -0.83400
O3073       O  0.25700917  0.12674101  0.34308321    -0.89000
C3074       C  0.22666765  0.17826850  0.37791673     0.87100
Mg3075     Mg  0.29305967  0.12697919  0.33614277     1.58100
O3076       O  0.20974421  0.17525133  0.32027207    -0.88700
O3077       O  0.22366142  0.12361154  0.32614620    -0.76000
C3078       C  0.29612266  0.20600203  0.26309320     0.92100
O3079       O  0.27778938  0.16431632  0.37637637    -0.75800
O3080       O  0.31105195  0.19390590  0.27281730    -0.83300
Mg3081     Mg  0.24915818  0.13611459  0.37682478     1.58000
C3082       C  0.21774273  0.23921376  0.28955489     0.92000
O3083       O  0.22138338  0.10902099  0.37882156    -0.81600
H3084       H  0.18730834  0.16446338  0.29710849    -0.06900
C3085       C  0.26592866  0.21917589  0.32491180     0.87000
O3086       O  0.28293354  0.13049627  0.29721959    -0.76100
O3087       O  0.22522502  0.16085413  0.36556887    -0.88900
O3088       O  0.20517905  0.22732558  0.30254116    -0.81700
C3089       C  0.16752135  0.19518032  0.35586950     0.92200
C3090       C  0.20038768  0.10522814  0.37496247     0.92000
Mg3091     Mg  0.25029141  0.19665851  0.28334122     1.58000
O3092       O  0.28182924  0.21610147  0.27553347    -0.81600
O3093       O  0.21618741  0.17825470  0.28414286    -0.75900
O3094       O  0.17071208  0.17366020  0.35699953    -0.81700
O3095       O  0.27252332  0.11027033  0.38944410    -0.83400
O3096       O  0.32593635  0.15091104  0.29754111    -0.81700
C3097       C  0.20352508  0.17247806  0.30050158     0.86400
O3098       O  0.27079217  0.16590578  0.29624219    -0.88900
O3099       O  0.25087938  0.20573499  0.31913487    -0.89000
O3100       O  0.28677923  0.21421275  0.32200063    -0.76000
Mg3101     Mg  0.19838260  0.14915115  0.34216326     1.58000
O3102       O  0.18210149  0.20885664  0.34742712    -0.83400
H3103       H  0.25076005  0.10337068  0.31915256    -0.07100
O3104       O  0.29293108  0.16401653  0.34170785    -0.88700
H3105       H  0.30322114  0.18583793  0.36646049    -0.07000
H3106       H  0.27041554  0.14540149  0.26832875    -0.07100
C3107       C  0.29188653  0.17212835  0.36170042     0.86400
C3108       C  0.24415287  0.11720509  0.32932030     0.87000
C3109       C  0.27433848  0.14718073  0.28623177     0.87100
H3110       H  0.26132148  0.23553747  0.33193904    -0.07100
O3111       O  0.22751468  0.19775518  0.36909194    -0.76100
Mg3112     Mg  0.30392020  0.18104935  0.30918664     1.58000
H3113       H  0.22926529  0.17635035  0.39604447    -0.07100
C3114       C  0.29364924  0.11353389  0.39098031     0.92000
O3115       O  0.33056732  0.12843929  0.32744006    -0.83400
C3116       C  0.33802802  0.13729640  0.30921646     0.92100
O3117       O  0.18761620  0.11954243  0.36480050    -0.83300
Mg3118     Mg  0.21727976  0.20860528  0.33363173     1.58200
O3119       O  0.30480093  0.12215436  0.37447965    -0.81700
O3120       O  0.23355402  0.23023566  0.27785997    -0.83400
O3121       O  0.15250229  0.37125243  0.24289120    -0.89000
C3122       C  0.12126583  0.31907111  0.27863084     0.87100
Mg3123     Mg  0.16058217  0.37124869  0.20674954     1.58100
O3124       O  0.17825092  0.32579968  0.29489876    -0.88700
O3125       O  0.16866866  0.37617486  0.27662775    -0.76000
C3126       C  0.23494389  0.29220320  0.20944344     0.92100
O3127       O  0.12299781  0.32923119  0.22496212    -0.75800
O3128       O  0.22646608  0.30511061  0.19451916    -0.83300
Mg3129     Mg  0.11991453  0.35827942  0.25164754     1.58000
C3130       C  0.21331338  0.26351363  0.28678147     0.92000
O3131       O  0.11474830  0.38678602  0.27776966    -0.81600
H3132       H  0.20155898  0.33977247  0.31534882    -0.06900
C3133       C  0.17331888  0.28030837  0.24018132     0.87000
O3134       O  0.19919249  0.36874998  0.21768388    -0.76100
O3135       O  0.13410466  0.33598500  0.27632724    -0.88900
O3136       O  0.19950915  0.27384832  0.29997842    -0.81700
C3137       C  0.14334214  0.30655308  0.33850467     0.92200
C3138       C  0.11732283  0.39195654  0.29866761     0.92000
Mg3139     Mg  0.21444575  0.30536396  0.25346396     1.58000
O3140       O  0.22146048  0.28341712  0.22355192    -0.81600
O3141       O  0.21412242  0.32575356  0.28640464    -0.75900
O3142       O  0.14039831  0.32719807  0.33213997    -0.81700
O3143       O  0.10350028  0.37999713  0.22702636    -0.83400
O3144       O  0.19981271  0.34581852  0.17587017    -0.81700
C3145       C  0.19802362  0.33061960  0.29978922     0.86400
O3146       O  0.19946163  0.33435444  0.23205705    -0.88900
O3147       O  0.17926823  0.29389554  0.25508866    -0.89000
O3148       O  0.17610727  0.28490290  0.21915758    -0.76000
Mg3149     Mg  0.15416220  0.35117700  0.30358339     1.58000
O3150       O  0.15372117  0.29176674  0.32626336    -0.83400
H3151       H  0.17539838  0.39569801  0.24895329    -0.07100
O3152       O  0.15532047  0.33355116  0.20551735    -0.88700
H3153       H  0.13316186  0.30771825  0.19983425    -0.07000
H3154       H  0.22767680  0.35444687  0.23169680    -0.07100
C3155       C  0.13701312  0.32280759  0.20965048     0.86400
C3156       C  0.16563783  0.38168730  0.25580225     0.87000
C3157       C  0.20982290  0.35261738  0.22752346     0.87100
H3158       H  0.16621080  0.26405802  0.24505175    -0.07100
O3159       O  0.12978678  0.29962141  0.28106422    -0.76100
Mg3160     Mg  0.18895270  0.31699217  0.19938359     1.58000
H3161       H  0.10302920  0.32101123  0.27684710    -0.07100
C3162       C  0.10461944  0.38187366  0.20569110     0.92000
O3163       O  0.17175872  0.37043834  0.16915110    -0.83400
C3164       C  0.19043417  0.36093580  0.16351668     0.92100
O3165       O  0.12840903  0.37928084  0.31234571    -0.83300
Mg3166     Mg  0.16646301  0.29112010  0.28971238     1.58200
O3167       O  0.12256601  0.37669137  0.19452952    -0.81700
O3168       O  0.22393556  0.27382500  0.27114888    -0.83400
O3169       O  0.31814549  0.70939676  0.24908371    -0.89000
C3170       C  0.28726725  0.64936087  0.27238798     0.87100
Mg3171     Mg  0.33394880  0.71141527  0.21520696     1.58100
O3172       O  0.34129621  0.66817203  0.29452645    -0.88700
O3173       O  0.31994727  0.71747701  0.28523644    -0.76000
C3174       C  0.38256516  0.60922695  0.20663698     0.92100
O3175       O  0.28623240  0.67971114  0.21371548    -0.75800
O3176       O  0.37212374  0.62223281  0.19270602    -0.83300
Mg3177     Mg  0.28251144  0.69876220  0.24746106     1.58000
C3178       C  0.39258811  0.62000639  0.29984699     0.92000
O3179       O  0.27057410  0.71719636  0.27913714    -0.81600
H3180       H  0.36368773  0.69193060  0.30586947    -0.06900
C3181       C  0.33378543  0.61976211  0.24719500     0.87000
O3182       O  0.36973544  0.70265981  0.22686507    -0.76100
O3183       O  0.29641947  0.66858301  0.26901952    -0.88900
O3184       O  0.37428179  0.62672624  0.30951462    -0.81700
C3185       C  0.30496732  0.64009171  0.33721222     0.92200
C3186       C  0.25989997  0.70606268  0.29427325     0.92000
Mg3187     Mg  0.37988067  0.64250918  0.25369617     1.58000
O3188       O  0.38499600  0.61439656  0.22750938    -0.81600
O3189       O  0.37650052  0.67116509  0.28118160    -0.75900
O3190       O  0.29536393  0.65393428  0.32372489    -0.81700
O3191       O  0.27650618  0.73294653  0.22943371    -0.83400
O3192       O  0.36170726  0.67497094  0.17331755    -0.81700
C3193       C  0.36062713  0.67778342  0.29448920     0.86400
O3194       O  0.36700750  0.66563907  0.22881951    -0.88900
O3195       O  0.34658451  0.63011490  0.26043921    -0.89000
O3196       O  0.33098739  0.62570120  0.22651630    -0.76000
Mg3197     Mg  0.30776847  0.68405561  0.30258518     1.58000
O3198       O  0.32448841  0.63189905  0.33278984    -0.83400
H3199       H  0.32976070  0.73942764  0.26025710    -0.07100
O3200       O  0.32275314  0.67673809  0.20970139    -0.88700
H3201       H  0.30111019  0.66453816  0.18646793    -0.07000
H3202       H  0.39708839  0.68220467  0.23177678    -0.07100
C3203       C  0.30342006  0.67328850  0.20248472     0.86400
C3204       C  0.32314155  0.72279527  0.26447833     0.87000
C3205       C  0.37898005  0.68339398  0.22860196     0.87100
H3206       H  0.32397768  0.60560826  0.25367324    -0.07100
O3207       O  0.29850001  0.63344769  0.28215624    -0.76100
Mg3208     Mg  0.34678324  0.65105487  0.20103171     1.58000
H3209       H  0.26979387  0.64649040  0.26731199    -0.07100
C3210       C  0.28920507  0.74043204  0.21349743     0.92000
O3211       O  0.34923724  0.71062038  0.17945337    -0.83400
C3212       C  0.35952164  0.69576425  0.16723529     0.92100
O3213       O  0.27126804  0.69497434  0.30870159    -0.83300
Mg3214     Mg  0.33671767  0.63086111  0.29554126     1.58200
O3215       O  0.30119881  0.72665410  0.20183129    -0.81700
O3216       O  0.39467556  0.61941312  0.27851486    -0.83400
O3217       O  0.24566336  0.82176870  0.20621723    -0.89000
C3218       C  0.27170843  0.78953355  0.14792652     0.87100
Mg3219     Mg  0.21168537  0.83586502  0.20846679     1.58100
O3220       O  0.29326780  0.84377555  0.16664947    -0.88700
O3221       O  0.28147165  0.82398203  0.21567447    -0.76000
C3222       C  0.20408545  0.88185678  0.10550708     0.92100
O3223       O  0.21294803  0.78758830  0.17527708    -0.75800
O3224       O  0.18987052  0.87222656  0.11887997    -0.83300
Mg3225     Mg  0.24592985  0.78638210  0.19556318     1.58000
C3226       C  0.29721202  0.89364513  0.11852052     0.92000
O3227       O  0.27590553  0.77862055  0.21731764    -0.81600
H3228       H  0.30083952  0.86669531  0.19133439    -0.06900
C3229       C  0.24485399  0.83399784  0.11808711     0.87000
O3230       O  0.22198935  0.87140078  0.19807140    -0.76100
O3231       O  0.26760553  0.79997059  0.16628200    -0.88900
O3232       O  0.30684710  0.87560530  0.12559044    -0.81700
C3233       C  0.33577868  0.80862637  0.14003673     0.92200
C3234       C  0.29019053  0.76518659  0.20869432     0.92000
Mg3235     Mg  0.24997207  0.88031413  0.13973073     1.58000
O3236       O  0.22494365  0.88429230  0.11070660    -0.81600
O3237       O  0.27633970  0.87756534  0.16939329    -0.75900
O3238       O  0.32280020  0.79877212  0.15428084    -0.81700
O3239       O  0.22780597  0.77839129  0.22736615    -0.83400
O3240       O  0.16984036  0.86267431  0.17223565    -0.81700
C3241       C  0.29065299  0.86283349  0.17649892     0.86400
O3242       O  0.22455970  0.86870559  0.16142140    -0.88900
O3243       O  0.25779179  0.84701339  0.12854746    -0.89000
O3244       O  0.22397927  0.83142004  0.12349404    -0.76000
Mg3245     Mg  0.30031790  0.81061084  0.18340810     1.58000
O3246       O  0.33052397  0.82745400  0.13089793    -0.83400
H3247       H  0.25557840  0.83458479  0.23619692    -0.07100
O3248       O  0.20634145  0.82378787  0.17419348    -0.88700
H3249       H  0.18470414  0.80117329  0.16085201    -0.07000
H3250       H  0.22678117  0.89855147  0.17746201    -0.07100
C3251       C  0.20043268  0.80417858  0.16990729     0.86400
C3252       C  0.26049599  0.82734113  0.22001263     0.87000
C3253       C  0.22395212  0.88042549  0.17873434     0.87100
H3254       H  0.25169398  0.82396192  0.10426216    -0.07100
O3255       O  0.28158038  0.79996062  0.13162435    -0.76100
Mg3256     Mg  0.19818765  0.84768937  0.14832412     1.58000
H3257       H  0.26709532  0.77179371  0.14614025    -0.07100
C3258       C  0.21198283  0.78903298  0.23738857     0.92000
O3259       O  0.17559333  0.84965835  0.20778038    -0.83400
C3260       C  0.16343211  0.85996967  0.19296072     0.92100
O3261       O  0.30526868  0.77359172  0.19586893    -0.83300
Mg3262     Mg  0.29341247  0.83835951  0.12935503     1.58200
O3263       O  0.19995732  0.80400579  0.22730098    -0.81700
O3264       O  0.27584187  0.89528358  0.11713570    -0.83400
O3265       O  0.17769956  0.74937484  0.29453362    -0.89000
C3266       C  0.20988016  0.72744399  0.35383828     0.87100
Mg3267     Mg  0.16260711  0.78261405  0.29157649     1.58100
O3268       O  0.15498973  0.70771810  0.33608423    -0.88700
O3269       O  0.17564032  0.71344340  0.28621134    -0.76000
C3270       C  0.12028375  0.79949320  0.39479411     0.92100
O3271       O  0.21160888  0.78495167  0.32220430    -0.75800
O3272       O  0.12993631  0.81218978  0.38005350    -0.83300
Mg3273     Mg  0.21334022  0.75081522  0.30400424     1.58000
C3274       C  0.10427580  0.70479872  0.38454459     0.92000
O3275       O  0.22232963  0.71930342  0.28481659    -0.81600
H3276       H  0.13096775  0.69771874  0.31333242    -0.06900
C3277       C  0.16548209  0.75629394  0.38316520     0.87000
O3278       O  0.12764728  0.77200250  0.30323813    -0.76100
O3279       O  0.20033546  0.73041214  0.33477366    -0.88900
O3280       O  0.12194635  0.69501072  0.37666156    -0.81700
C3281       C  0.18810229  0.66360577  0.36415681     0.92200
C3282       C  0.23460434  0.70511374  0.29523439     0.92000
Mg3283     Mg  0.11841856  0.75108727  0.36339136     1.58000
O3284       O  0.11627357  0.77844290  0.39123538    -0.81600
O3285       O  0.12025490  0.72288850  0.33475727    -0.75900
O3286       O  0.19973256  0.67568519  0.35046400    -0.81700
O3287       O  0.21903841  0.76766773  0.27043165    -0.83400
O3288       O  0.13794729  0.82890316  0.32581537    -0.81700
C3289       C  0.13524224  0.70887998  0.32733618     0.86400
O3290       O  0.12959901  0.77509276  0.34001320    -0.88900
O3291       O  0.15194789  0.74333230  0.37348123    -0.89000
O3292       O  0.16871327  0.77668323  0.37660824    -0.76000
Mg3293     Mg  0.18810396  0.69704245  0.31983079     1.58000
O3294       O  0.16939937  0.67063599  0.37230119    -0.83400
H3295       H  0.16566595  0.73855187  0.26454469    -0.07100
O3296       O  0.17527327  0.79015667  0.32495940    -0.88700
H3297       H  0.19761052  0.81339363  0.33583151    -0.07000
H3298       H  0.10012614  0.77038987  0.32387451    -0.07100
C3299       C  0.19480894  0.79705485  0.32785848     0.86400
C3300       C  0.17244817  0.73417515  0.28106360     0.87000
C3301       C  0.11826261  0.77323981  0.32250763     0.87100
H3302       H  0.17542427  0.74985670  0.39722260    -0.07100
O3303       O  0.19861086  0.71890054  0.37040572    -0.76100
Mg3304     Mg  0.15259744  0.80120138  0.35064595     1.58000
H3305       H  0.22763755  0.73184902  0.35602467    -0.07100
C3306       C  0.20764461  0.78354862  0.26124315     0.92000
O3307       O  0.14841865  0.81760341  0.29087943    -0.83400
C3308       C  0.13970604  0.83220822  0.30432955     0.92100
O3309       O  0.22475186  0.69047507  0.30761587    -0.83300
Mg3310     Mg  0.15983142  0.70776339  0.37317463     1.58200
O3311       O  0.19345571  0.79534098  0.27253345    -0.81700
O3312       O  0.10393355  0.72606345  0.38783697    -0.83400
O3313       O  0.99987099  0.42394600  0.20717580    -0.89000
C3314       C  0.97676540  0.45686532  0.14904780     0.87100
Mg3315     Mg  0.03365948  0.41087722  0.20949348     1.58100
O3316       O  0.95607968  0.40165654  0.16495579    -0.88700
O3317       O  0.96395770  0.41999543  0.21538946    -0.76000
C3318       C  0.04994776  0.36890900  0.10602808     0.92100
O3319       O  0.03336954  0.46057106  0.17932084    -0.75800
O3320       O  0.06215194  0.37982110  0.12028681    -0.83300
Mg3321     Mg  0.99958885  0.45964849  0.19818866     1.58000
C3322       C  0.95510664  0.35217724  0.11529936     0.92000
O3323       O  0.96873941  0.46495644  0.21895833    -0.81600
H3324       H  0.94846391  0.37736227  0.18828582    -0.06900
C3325       C  0.00534007  0.41410687  0.11781437     0.87000
O3326       O  0.02483763  0.37559630  0.19737964    -0.76100
O3327       O  0.98000465  0.44629838  0.16750549    -0.88900
O3328       O  0.94483754  0.36995902  0.12245970    -0.81700
C3329       C  0.91426474  0.43773611  0.13767500     0.92200
C3330       C  0.95516969  0.47887692  0.21015984     0.92000
Mg3331     Mg  0.00161388  0.36682442  0.13765706     1.58000
O3332       O  0.02896282  0.36443796  0.10962643    -0.81600
O3333       O  0.97384245  0.36814629  0.16647713    -0.75900
O3334       O  0.92642616  0.44708932  0.15285887    -0.81700
O3335       O  0.01612315  0.46697429  0.23080991    -0.83400
O3336       O  0.07967761  0.38825338  0.17384749    -0.81700
C3337       C  0.95896350  0.38220450  0.17394239     0.86400
O3338       O  0.02565119  0.37885678  0.16065895    -0.88900
O3339       O  0.99271646  0.40008029  0.12728667    -0.89000
O3340       O  0.02564967  0.41787552  0.12440274    -0.76000
Mg3341     Mg  0.94690549  0.43427733  0.18270133     1.58000
O3342       O  0.91952835  0.41871496  0.12880104    -0.83400
H3343       H  0.98952955  0.40955615  0.23631333    -0.07100
O3344       O  0.04007229  0.42458732  0.17610440    -0.88700
H3345       H  0.06222114  0.44798412  0.16512504    -0.07000
H3346       H  0.02322666  0.34869213  0.17599302    -0.07100
C3347       C  0.04612651  0.44440420  0.17332101     0.86400
C3348       C  0.98486110  0.41727085  0.22029199     0.87000
C3349       C  0.02525312  0.36688087  0.17780064     0.87100
H3350       H  0.99859870  0.42409430  0.10393472    -0.07100
O3351       O  0.96810553  0.44648332  0.13201801    -0.76100
Mg3352     Mg  0.05110527  0.40236640  0.14979423     1.58000
H3353       H  0.98111049  0.47471291  0.14776237    -0.07100
C3354       C  0.03204552  0.45636874  0.24063310     0.92000
O3355       O  0.06929262  0.39867498  0.20910836    -0.83400
C3356       C  0.08365309  0.39025285  0.19517873     0.92100
O3357       O  0.94055748  0.47098713  0.19647699    -0.83300
Mg3358     Mg  0.95694702  0.40795087  0.12784156     1.58200
O3359       O  0.04425673  0.44170972  0.23034166    -0.81700
O3360       O  0.97659634  0.35136515  0.11383855    -0.83400
O3361       O  0.92934702  0.53802124  0.24924536    -0.89000
C3362       C  0.96294389  0.59715309  0.27242815     0.87100
Mg3363     Mg  0.91449339  0.53547119  0.21493489     1.58100
O3364       O  0.90688528  0.58220327  0.29264380    -0.88700
O3365       O  0.92621626  0.53159027  0.28566140    -0.76000
C3366       C  0.87408299  0.63990492  0.20033832     0.92100
O3367       O  0.96440666  0.56404766  0.21393112    -0.75800
O3368       O  0.88465281  0.62580834  0.18767199    -0.83300
Mg3369     Mg  0.96553547  0.54630381  0.24847876     1.58000
C3370       C  0.85804825  0.63380682  0.29278324     0.92000
O3371       O  0.97484497  0.52896761  0.28134404    -0.81600
H3372       H  0.88230205  0.56050132  0.30360402    -0.06900
C3373       C  0.91989764  0.62783159  0.24350261     0.87000
O3374       O  0.87910076  0.54689320  0.22530336    -0.76100
O3375       O  0.95297091  0.57834539  0.26907391    -0.88900
O3376       O  0.87502346  0.62612955  0.30397699    -0.81700
C3377       C  0.94060921  0.61021259  0.33695567     0.92200
C3378       C  0.98614820  0.54032278  0.29585145     0.92000
Mg3379     Mg  0.87196629  0.60876532  0.24870901     1.58000
O3380       O  0.86980013  0.63578810  0.22113274    -0.81600
O3381       O  0.87224178  0.58121321  0.27765334    -0.75900
O3382       O  0.95148932  0.59522663  0.32558558    -0.81700
O3383       O  0.96931582  0.51076030  0.23153843    -0.83400
O3384       O  0.89112114  0.57213949  0.17097551    -0.81700
C3385       C  0.88694774  0.57394423  0.29191408     0.86400
O3386       O  0.88413362  0.58372622  0.22552074    -0.88900
O3387       O  0.90568007  0.61894100  0.25636883    -0.89000
O3388       O  0.92341613  0.62083202  0.22327265    -0.76000
Mg3389     Mg  0.93935712  0.56486160  0.30292121     1.58000
O3390       O  0.92245121  0.61902117  0.32933995    -0.83400
H3391       H  0.91589232  0.50913910  0.26132669    -0.07100
O3392       O  0.92830174  0.56891047  0.20865080    -0.88700
H3393       H  0.95132057  0.57866277  0.18554376    -0.07000
H3394       H  0.85299697  0.56922755  0.22849241    -0.07100
C3395       C  0.94800407  0.57084422  0.20186338     0.86400
C3396       C  0.92323842  0.52558771  0.26504197     0.87000
C3397       C  0.87106738  0.56675619  0.22583791     0.87100
H3398       H  0.93033804  0.64151055  0.25000065    -0.07100
O3399       O  0.95203861  0.61391170  0.28115841    -0.76100
Mg3400     Mg  0.90680840  0.59571842  0.19821671     1.58000
H3401       H  0.98082818  0.59892602  0.26833729    -0.07100
C3402       C  0.95705337  0.50362707  0.21505106     0.92000
O3403       O  0.90045041  0.53587722  0.17868522    -0.83400
C3404       C  0.89186602  0.55106557  0.16564311     0.92100
O3405       O  0.97529263  0.55208989  0.31025156    -0.83300
Mg3406     Mg  0.91319890  0.61921806  0.29196170     1.58200
O3407       O  0.94633151  0.51776974  0.20271305    -0.81700
O3408       O  0.85820927  0.63436341  0.27138042    -0.83400
O3409       O  0.06803150  0.49564349  0.29514616    -0.89000
C3410       C  0.03647146  0.52110349  0.35425542     0.87100
Mg3411     Mg  0.08263737  0.46178237  0.29230434     1.58100
O3412       O  0.09155735  0.54104597  0.33658949    -0.88700
O3413       O  0.07102871  0.53157314  0.28660186    -0.76000
C3414       C  0.12716427  0.44990423  0.39506714     0.92100
O3415       O  0.03413179  0.46218291  0.32540920    -0.75800
O3416       O  0.11696180  0.43690159  0.38104971    -0.83300
Mg3417     Mg  0.03257526  0.49560644  0.30605455     1.58000
C3418       C  0.14115849  0.54312275  0.38742583     0.92000
O3419       O  0.02344296  0.52634683  0.28573813    -0.81600
H3420       H  0.11556398  0.55166554  0.31408095    -0.06900
C3421       C  0.08010894  0.49271950  0.38380731     0.87000
O3422       O  0.11844845  0.47251314  0.30210309    -0.76100
O3423       O  0.04663376  0.51692481  0.33573545    -0.88900
O3424       O  0.12402809  0.55411074  0.37978221    -0.81700
C3425       C  0.05696866  0.58492070  0.36292603     0.92200
C3426       C  0.01153736  0.54108293  0.29586369     0.92000
Mg3427     Mg  0.12729488  0.49809689  0.36338825     1.58000
O3428       O  0.13052759  0.47090616  0.39102955    -0.81600
O3429       O  0.12626560  0.52631390  0.33519312    -0.75900
O3430       O  0.04706819  0.57177207  0.34892213    -0.81700
O3431       O  0.02540510  0.47773350  0.27360325    -0.83400
O3432       O  0.10882473  0.41910026  0.32768733    -0.81700
C3433       C  0.11130452  0.54027282  0.32790275     0.86400
O3434       O  0.11459955  0.47427942  0.33899992    -0.88900
O3435       O  0.09383694  0.50588139  0.37451711    -0.89000
O3436       O  0.07723236  0.47216648  0.37732506    -0.76000
Mg3437     Mg  0.05864907  0.54974723  0.31945323     1.58000
O3438       O  0.07570629  0.57950671  0.37225975    -0.83400
H3439       H  0.08041630  0.50603522  0.26513579    -0.07100
O3440       O  0.07036960  0.45570116  0.32635051    -0.88700
H3441       H  0.04779654  0.43359676  0.33898512    -0.07000
H3442       H  0.14522835  0.47705102  0.32338430    -0.07100
C3443       C  0.05076317  0.44958792  0.33040146     0.86400
C3444       C  0.07365390  0.51068407  0.28160867     0.87000
C3445       C  0.12712390  0.47410149  0.32163000     0.87100
H3446       H  0.06968213  0.49911817  0.39756060    -0.07100
O3447       O  0.04723054  0.53062135  0.37058740    -0.76100
Mg3448     Mg  0.09334493  0.44648697  0.35202131     1.58000
H3449       H  0.01861948  0.51692267  0.35614664    -0.07100
C3450       C  0.03644693  0.46159899  0.26443653     0.92000
O3451       O  0.09713181  0.42591339  0.29193657    -0.83400
C3452       C  0.10716781  0.41345328  0.30667441     0.92100
O3453       O  0.02187290  0.55605207  0.30736676    -0.83300
Mg3454     Mg  0.08592257  0.54179606  0.37397127     1.58200
O3455       O  0.05037264  0.44946261  0.27568095    -0.81700
O3456       O  0.14139029  0.52169937  0.38800594    -0.83400
O3457       O  0.07697967  0.24902572  0.45995584    -0.89000
C3458       C  0.04319244  0.22632828  0.40161849     0.87100
Mg3459     Mg  0.08941095  0.28367186  0.46295733     1.58100
O3460       O  0.09905940  0.20324607  0.41551441    -0.88700
O3461       O  0.08130501  0.21257066  0.46589079    -0.76000
C3462       C  0.13415875  0.29878337  0.36050416     0.92100
O3463       O  0.04023701  0.28271272  0.43367660    -0.75800
O3464       O  0.12330936  0.31228092  0.37373594    -0.83300
Mg3465     Mg  0.04107309  0.24839450  0.45215746     1.58000
C3466       C  0.14730225  0.20603927  0.36548934     0.92000
O3467       O  0.03635451  0.21623468  0.47108833    -0.81600
H3468       H  0.12205870  0.19606124  0.44018669    -0.06900
C3469       C  0.08715416  0.25611097  0.37066118     0.87000
O3470       O  0.12576173  0.27564812  0.45274022    -0.76100
O3471       O  0.05383677  0.22890545  0.42011363    -0.88900
O3472       O  0.12918407  0.19520061  0.37050934    -0.81700
C3473       C  0.06379586  0.16259298  0.38614229     0.92200
C3474       C  0.02252464  0.20286573  0.46165484     0.92000
Mg3475     Mg  0.13358216  0.25072594  0.39241712     1.58000
O3476       O  0.13729041  0.27795562  0.36541676    -0.81600
O3477       O  0.13147756  0.22253259  0.42002512    -0.75900
O3478       O  0.05392620  0.17280198  0.40266620    -0.81700
O3479       O  0.03485956  0.26448250  0.48696000    -0.83400
O3480       O  0.11201473  0.33048015  0.42761028    -0.81700
C3481       C  0.11771543  0.20677248  0.42587168     0.86400
O3482       O  0.12056738  0.27470654  0.41614809    -0.88900
O3483       O  0.10032977  0.24300010  0.38065830    -0.89000
O3484       O  0.08388661  0.27657421  0.37704849    -0.76000
Mg3485     Mg  0.06649491  0.19488741  0.43324373     1.58000
O3486       O  0.08153289  0.17058899  0.37672108    -0.83400
H3487       H  0.09243030  0.23703591  0.48785361    -0.07100
O3488       O  0.07604715  0.29043954  0.42910334    -0.88700
H3489       H  0.05161385  0.31156580  0.41844217    -0.07000
H3490       H  0.15199029  0.27423770  0.43030042    -0.07100
C3491       C  0.05592293  0.29572571  0.42672070     0.86400
C3492       C  0.08418218  0.23325977  0.47185673     0.87000
C3493       C  0.13379039  0.27556172  0.43290024     0.87100
H3494       H  0.07746779  0.24969223  0.35640577    -0.07100
O3495       O  0.05352672  0.21832443  0.38423852    -0.76100
Mg3496     Mg  0.09875681  0.30199316  0.40295110     1.58000
H3497       H  0.02530356  0.23061897  0.40059964    -0.07100
C3498       C  0.04576821  0.28140507  0.49482151     0.92000
O3499       O  0.10090467  0.31969196  0.46259272    -0.83400
C3500       C  0.10919622  0.33436588  0.44888705     0.92100
O3501       O  0.03037217  0.18864032  0.44754181    -0.83300
Mg3502     Mg  0.09197089  0.20750778  0.37855997     1.58200
O3503       O  0.05703915  0.29422976  0.48147142    -0.81700
O3504       O  0.14919958  0.22714362  0.36873425    -0.83400
O3505       O  0.99844337  0.28762920  0.57493323    -0.89000
C3506       C  0.02297980  0.34623000  0.54198997     0.87100
Mg3507     Mg  0.96342447  0.28539160  0.58793646     1.58100
O3508       O  0.04469254  0.33039192  0.59736535    -0.88700
O3509       O  0.03481414  0.28060397  0.57853656    -0.76000
C3510       C  0.95321909  0.38876792  0.63333289     0.92100
O3511       O  0.96549636  0.31562413  0.53895891    -0.75800
O3512       O  0.93951073  0.37581266  0.62244611    -0.83300
Mg3513     Mg  0.99941521  0.29642424  0.53892601     1.58000
C3514       C  0.04574004  0.38030591  0.64663505     0.92000
O3515       O  0.03122564  0.27666557  0.53257314    -0.81600
H3516       H  0.05350120  0.30639180  0.62054509    -0.06900
C3517       C  0.99495606  0.37733154  0.58643603     0.87000
O3518       O  0.97189793  0.29559336  0.62427296    -0.76100
O3519       O  0.01981350  0.32756808  0.55218208    -0.88900
O3520       O  0.05551413  0.37397190  0.62833558    -0.81700
C3521       C  0.08692928  0.35913559  0.56274626     0.92200
C3522       C  0.04549952  0.28613661  0.51959176     0.92000
Mg3523     Mg  0.00017128  0.35550575  0.63327509     1.58000
O3524       O  0.97384184  0.38330458  0.63679988    -0.81600
O3525       O  0.02785993  0.32714974  0.63116015    -0.75900
O3526       O  0.07623740  0.34330679  0.55236466    -0.81700
O3527       O  0.98263816  0.26223299  0.53210311    -0.83400
O3528       O  0.92007970  0.32253376  0.61204374    -0.81700
C3529       C  0.04257566  0.32064698  0.61653124     0.86400
O3530       O  0.97582586  0.33213988  0.61953918    -0.88900
O3531       O  0.00765059  0.36711990  0.59985538    -0.89000
O3532       O  0.97447721  0.37124898  0.58270330    -0.76000
Mg3533     Mg  0.05333979  0.31317195  0.56460286     1.58000
O3534       O  0.07945392  0.36780508  0.58101575    -0.83400
H3535       H  0.00989224  0.25897009  0.58936295    -0.07100
O3536       O  0.95837493  0.31963984  0.57494654    -0.88700
H3537       H  0.93708738  0.33116885  0.55105863    -0.07000
H3538       H  0.97566601  0.31746737  0.65071788    -0.07100
C3539       C  0.95283431  0.32250320  0.55496445     0.86400
C3540       C  0.01399045  0.27511017  0.58155785     0.87000
C3541       C  0.97391504  0.31526211  0.63251722     0.87100
H3542       H  0.00185194  0.39139772  0.57679384    -0.07100
O3543       O  0.03157412  0.36308234  0.55270628    -0.76100
Mg3544     Mg  0.94863254  0.34615884  0.59798870     1.58000
H3545       H  0.01868080  0.34783511  0.52415906    -0.07100
C3546       C  0.96655541  0.25426179  0.54416411     0.92000
O3547       O  0.92640598  0.28668273  0.60008995    -0.83400
C3548       C  0.91376510  0.30182782  0.60946672     0.92100
O3549       O  0.05962979  0.29976201  0.52836881    -0.83300
Mg3550     Mg  0.04276046  0.36749743  0.59122628     1.58200
O3551       O  0.95336763  0.26773884  0.55494930    -0.81700
O3552       O  0.02446478  0.37903899  0.64926190    -0.83400
O3553       O  0.96218872  0.17514712  0.49888570    -0.89000
C3554       C  0.90503371  0.21055022  0.52227060     0.87100
Mg3555     Mg  0.96452484  0.16239866  0.46439380     1.58100
O3556       O  0.91757812  0.15377833  0.54202582    -0.88700
O3557       O  0.96890346  0.17029744  0.53504331    -0.76000
C3558       C  0.85985117  0.12361868  0.44719609     0.92100
O3559       O  0.93761873  0.21282426  0.46492329    -0.75800
O3560       O  0.87406990  0.13426648  0.43461770    -0.83300
Mg3561     Mg  0.95550300  0.21139131  0.49945616     1.58000
C3562       C  0.86497506  0.10758118  0.53999224     0.92000
O3563       O  0.97342869  0.21594813  0.53214425    -0.81600
H3564       H  0.93928022  0.12842255  0.55083842    -0.06900
C3565       C  0.87255357  0.16906410  0.49164275     0.87000
O3566       O  0.95243896  0.12670891  0.47275243    -0.76100
O3567       O  0.92315549  0.19941139  0.51890397    -0.88900
O3568       O  0.87280299  0.12426896  0.55144814    -0.81700
C3569       C  0.89025373  0.18910908  0.58512898     0.92200
C3570       C  0.96360235  0.22926174  0.54585232     0.92000
Mg3571     Mg  0.89058060  0.12102869  0.49587271     1.58000
O3572       O  0.86371982  0.11948593  0.46807460    -0.81600
O3573       O  0.91821009  0.12022677  0.52456108    -0.75900
O3574       O  0.90659759  0.19804139  0.57403932    -0.81700
O3575       O  0.99072955  0.21583780  0.48339313    -0.83400
O3576       O  0.92848683  0.14188837  0.41729709    -0.81700
C3577       C  0.92569466  0.13391014  0.53970316     0.86400
O3578       O  0.91578645  0.13257983  0.47239391    -0.88900
O3579       O  0.88157754  0.15488865  0.50439711    -0.89000
O3580       O  0.87924882  0.17237399  0.47127103    -0.76000
Mg3581     Mg  0.93635464  0.18505732  0.55246206     1.58000
O3582       O  0.88042849  0.17111710  0.57832358    -0.83400
H3583       H  0.99037057  0.15952523  0.50998312    -0.07100
O3584       O  0.93146085  0.17721481  0.45777680    -0.88700
H3585       H  0.92232734  0.20169940  0.43602171    -0.07000
H3586       H  0.92943475  0.10100412  0.47402768    -0.07100
C3587       C  0.93013633  0.19729423  0.45207557     0.86400
C3588       C  0.97445398  0.16772521  0.51423794     0.87000
C3589       C  0.93240081  0.11910238  0.47238782     0.87100
H3590       H  0.85894394  0.17952025  0.49828143    -0.07100
O3591       O  0.88749791  0.20058416  0.53050703    -0.76100
Mg3592     Mg  0.90442823  0.15631979  0.44574202     1.58000
H3593       H  0.90448542  0.22856032  0.51849737    -0.07100
C3594       C  0.99783133  0.20434720  0.46646256     0.92000
O3595       O  0.96393632  0.15084299  0.42845488    -0.83400
C3596       C  0.94994269  0.14341266  0.41363580     0.92100
O3597       O  0.95078929  0.22053979  0.56072439    -0.83300
Mg3598     Mg  0.88082911  0.16195768  0.54041881     1.58200
O3599       O  0.98373077  0.19404854  0.45368534    -0.81700
O3600       O  0.86458140  0.10783005  0.51858057    -0.83400
O3601       O  0.42725697  0.54677665  0.74760160    -0.89000
C3602       C  0.46051880  0.60412546  0.77317423     0.87100
Mg3603     Mg  0.41449649  0.54465913  0.71313091     1.58100
O3604       O  0.40523799  0.58749785  0.79508111    -0.88700
O3605       O  0.42399355  0.53792931  0.78351891    -0.76000
C3606       C  0.36906276  0.64738565  0.70207341     0.92100
O3607       O  0.46339520  0.57616937  0.71540149    -0.75800
O3608       O  0.37962416  0.63444847  0.68804423    -0.83300
Mg3609     Mg  0.46295340  0.55596256  0.74853683     1.58000
C3610       C  0.35642388  0.63731087  0.79481208     0.92000
O3611       O  0.46896541  0.53422340  0.77882321    -0.81600
H3612       H  0.38227207  0.56229496  0.80049204    -0.06900
C3613       C  0.41666864  0.63522037  0.74414443     0.87000
O3614       O  0.37811562  0.55433775  0.72154012    -0.76100
O3615       O  0.44979451  0.58587238  0.76960977    -0.88900
O3616       O  0.37419734  0.63112763  0.80555585    -0.81700
C3617       C  0.44007613  0.61475244  0.83696472     0.92200
C3618       C  0.48279892  0.54259106  0.79283739     0.92000
Mg3619     Mg  0.37036351  0.61343293  0.74877678     1.58000
O3620       O  0.36632751  0.64197175  0.72286603    -0.81600
O3621       O  0.37282552  0.58424706  0.77549905    -0.75900
O3622       O  0.45041954  0.59926016  0.82579403    -0.81700
O3623       O  0.47031079  0.52363754  0.73099008    -0.83400
O3624       O  0.39096806  0.58103490  0.66762796    -0.81700
C3625       C  0.38662024  0.57732202  0.79079054     0.86400
O3626       O  0.38311616  0.59083725  0.72367583    -0.88900
O3627       O  0.40357087  0.62465704  0.75694534    -0.89000
O3628       O  0.41959817  0.62986921  0.72329912    -0.76000
Mg3629     Mg  0.43823161  0.56991729  0.80256158     1.58000
O3630       O  0.42206993  0.62418036  0.82961264    -0.83400
H3631       H  0.41304419  0.51748476  0.75771345    -0.07100
O3632       O  0.42761856  0.57874563  0.70684623    -0.88700
H3633       H  0.45192623  0.59131620  0.68660577    -0.07000
H3634       H  0.35175478  0.57650734  0.72367289    -0.07100
C3635       C  0.44769956  0.58231763  0.70208477     0.86400
C3636       C  0.42083384  0.53343781  0.76253124     0.87000
C3637       C  0.36996816  0.57407496  0.72226695     0.87100
H3638       H  0.42648583  0.64913148  0.75110263    -0.07100
O3639       O  0.45016087  0.62101470  0.78199284    -0.76100
Mg3640     Mg  0.40452719  0.60502462  0.69677838     1.58000
H3641       H  0.47842531  0.60534499  0.76897047    -0.07100
C3642       C  0.45985614  0.51412755  0.71476242     0.92000
O3643       O  0.40270826  0.54592623  0.67728612    -0.83400
C3644       C  0.39402743  0.55989440  0.66311903     0.92100
O3645       O  0.47494670  0.55609427  0.80765655    -0.83300
Mg3646     Mg  0.41164689  0.62478550  0.79276536     1.58200
O3647       O  0.44601025  0.52502560  0.70218369    -0.81700
O3648       O  0.35511114  0.63608693  0.77345842    -0.83400
O3649       O  0.49914357  0.45864481  0.68033705    -0.89000
C3650       C  0.52075917  0.39828617  0.71155705     0.87100
Mg3651     Mg  0.46588398  0.46194841  0.66431277     1.58100
O3652       O  0.54285152  0.41737373  0.65812915    -0.88700
O3653       O  0.53528148  0.46678975  0.67955196    -0.76000
C3654       C  0.45427356  0.35995631  0.61682699     0.92100
O3655       O  0.46302236  0.42901467  0.71213510    -0.75800
O3656       O  0.44050865  0.37359950  0.62667410    -0.83300
Mg3657     Mg  0.49696178  0.44738262  0.71564709     1.58000
C3658       C  0.54814761  0.36895751  0.60711165     0.92000
O3659       O  0.52807736  0.46643214  0.72713175    -0.81600
H3660       H  0.55571710  0.44015842  0.63553067    -0.06900
C3661       C  0.49482627  0.36974372  0.66543843     0.87000
O3662       O  0.47775257  0.45268918  0.62876014    -0.76100
O3663       O  0.51780125  0.41737808  0.70206627    -0.88900
O3664       O  0.55779010  0.37649457  0.62503555    -0.81700
C3665       C  0.58545217  0.38993056  0.69348225     0.92200
C3666       C  0.54247390  0.45569343  0.73894614     0.92000
Mg3667     Mg  0.50248498  0.39168200  0.61934296     1.58000
O3668       O  0.47535142  0.36445801  0.61461962    -0.81600
O3669       O  0.53084917  0.41971011  0.62248989    -0.75900
O3670       O  0.57106067  0.40217438  0.70386413    -0.81700
O3671       O  0.47982079  0.48042486  0.72222338    -0.83400
O3672       O  0.42280624  0.42705728  0.63676257    -0.81700
C3673       C  0.54379582  0.42645604  0.63859427     0.86400
O3674       O  0.47806613  0.41567150  0.63146797    -0.88900
O3675       O  0.50850499  0.37971856  0.65277849    -0.89000
O3676       O  0.47422186  0.37616912  0.66786782    -0.76000
Mg3677     Mg  0.55147738  0.43292785  0.69172006     1.58000
O3678       O  0.58099725  0.38154474  0.67409228    -0.83400
H3679       H  0.51056032  0.48885093  0.66942368    -0.07100
O3680       O  0.45876806  0.42760680  0.67562997    -0.88700
H3681       H  0.43509508  0.41560434  0.69693512    -0.07000
H3682       H  0.48226663  0.43206282  0.60146776    -0.07100
C3683       C  0.45141433  0.42385978  0.69484664     0.86400
C3684       C  0.51462987  0.47213897  0.67590908     0.87000
C3685       C  0.47881816  0.43339072  0.61951579     0.87100
H3686       H  0.50079865  0.35547086  0.67535888    -0.07100
O3687       O  0.53036110  0.38209283  0.70060888    -0.76100
Mg3688     Mg  0.44962957  0.40223666  0.65173807     1.58000
H3689       H  0.51545147  0.39576843  0.72901907    -0.07100
C3690       C  0.46446308  0.49006881  0.71051265     0.92000
O3691       O  0.43054073  0.46254177  0.64883278    -0.83400
C3692       C  0.41764214  0.44811754  0.63885610     0.92100
O3693       O  0.55713928  0.44381097  0.72863473    -0.83300
Mg3694     Mg  0.54372485  0.38009229  0.66245259     1.58200
O3695       O  0.45256808  0.47906923  0.69613830    -0.81700
O3696       O  0.52681246  0.36730277  0.60558860    -0.83400
O3697       O  0.54024933  0.50214432  0.82031871    -0.89000
C3698       C  0.59968735  0.47936100  0.78890823     0.87100
Mg3699     Mg  0.53845990  0.53606972  0.83491275     1.58100
O3700       O  0.58217715  0.45973304  0.84424519    -0.88700
O3701       O  0.53232371  0.46613391  0.82354816    -0.76000
C3702       C  0.64200481  0.55038204  0.87878047     0.92100
O3703       O  0.56796018  0.53717683  0.78625929    -0.75800
O3704       O  0.62809985  0.56330549  0.86818900    -0.83300
Mg3705     Mg  0.54925727  0.50309957  0.78447768     1.58000
C3706       C  0.63083509  0.45608432  0.89507030     0.92000
O3707       O  0.53099254  0.47077943  0.77541650    -0.81600
H3708       H  0.55922330  0.44952383  0.86803759    -0.06900
C3709       C  0.63011839  0.50716534  0.83389329     0.87000
O3710       O  0.54846022  0.52541818  0.87053068    -0.76100
O3711       O  0.58032023  0.48237948  0.79794049    -0.88900
O3712       O  0.62318727  0.44639644  0.87721635    -0.81700
C3713       C  0.61106258  0.41552574  0.81030377     0.92200
C3714       C  0.54201385  0.45596861  0.76425157     0.92000
Mg3715     Mg  0.60950030  0.50237321  0.88101022     1.58000
O3716       O  0.63755536  0.52959272  0.88326274    -0.81600
O3717       O  0.58068959  0.47448358  0.87911800    -0.75900
O3718       O  0.59651778  0.42727416  0.79939246    -0.81700
O3719       O  0.51442722  0.52055070  0.77935726    -0.83400
O3720       O  0.57464612  0.58199822  0.85894054    -0.81700
C3721       C  0.57331637  0.46066633  0.86396210     0.86400
O3722       O  0.58570778  0.52706046  0.86865344    -0.88900
O3723       O  0.61991577  0.49461169  0.84745441    -0.89000
O3724       O  0.62393885  0.52755241  0.82999627    -0.76000
Mg3725     Mg  0.56585669  0.44905061  0.81127212     1.58000
O3726       O  0.61888406  0.42217881  0.82925629    -0.83400
H3727       H  0.51047100  0.49135117  0.83298873    -0.07100
O3728       O  0.57246396  0.54217291  0.82248082    -0.88700
H3729       H  0.58341066  0.56497082  0.79972294    -0.07000
H3730       H  0.56869215  0.52292589  0.89830979    -0.07100
C3731       C  0.57498103  0.54891641  0.80283639     0.86400
C3732       C  0.52698885  0.48694024  0.82616173     0.87000
C3733       C  0.56763627  0.52578009  0.88014915     0.87100
H3734       H  0.64425658  0.50026125  0.82433938    -0.07100
O3735       O  0.61602728  0.47079972  0.80053101    -0.76100
Mg3736     Mg  0.59853061  0.55326919  0.84502301     1.58000
H3737       H  0.60233763  0.48371903  0.77121231    -0.07100
C3738       C  0.50744783  0.53708939  0.79156435     0.92000
O3739       O  0.53943973  0.57148891  0.84849829    -0.83400
C3740       C  0.55329654  0.58589436  0.85698516     0.92100
O3741       O  0.55366921  0.44155736  0.77517338    -0.83300
Mg3742     Mg  0.61930761  0.45929326  0.83928783     1.58200
O3743       O  0.52168135  0.54890824  0.80278157    -0.81700
O3744       O  0.63346857  0.47741566  0.89593163    -0.83400
O3745       O  0.12727222  0.40348562  0.49691987    -0.89000
C3746       C  0.18037916  0.37116706  0.52842972     0.87100
Mg3747     Mg  0.12667211  0.41155734  0.46109594     1.58100
O3748       O  0.17418639  0.42861545  0.54500629    -0.88700
O3749       O  0.12288903  0.41957255  0.53054855    -0.76000
C3750       C  0.20607856  0.48620005  0.46015578     0.92100
O3751       O  0.16715022  0.37353942  0.47612482    -0.75800
O3752       O  0.19264163  0.47830941  0.44527314    -0.83300
Mg3753     Mg  0.13902145  0.37038669  0.50439585     1.58000
C3754       C  0.23701685  0.46258483  0.53762727     0.92000
O3755       O  0.11180884  0.36521768  0.53187996    -0.81600
H3756       H  0.16168005  0.45162709  0.56673427    -0.06900
C3757       C  0.21834917  0.42439703  0.48890963     0.87000
O3758       O  0.12907334  0.45021706  0.47216530    -0.76100
O3759       O  0.16275557  0.38325620  0.52853745    -0.88900
O3760       O  0.22572136  0.44890474  0.54999421    -0.81700
C3761       C  0.19519408  0.39507763  0.58790113     0.92200
C3762       C  0.10795320  0.36840828  0.55296779     0.92000
Mg3763     Mg  0.19492072  0.46545517  0.50431640     1.58000
O3764       O  0.21528805  0.47220992  0.47341630    -0.81600
O3765       O  0.17571368  0.46473432  0.53803471    -0.75900
O3766       O  0.17401844  0.39182946  0.58391184    -0.81700
O3767       O  0.11457693  0.35605779  0.48088199    -0.83400
O3768       O  0.14964678  0.45203965  0.42828974    -0.81700
C3769       C  0.17029803  0.44833762  0.55080284     0.86400
O3770       O  0.16457526  0.45175464  0.48385753    -0.88900
O3771       O  0.20510585  0.43012840  0.50420514    -0.89000
O3772       O  0.21325999  0.42764415  0.46810161    -0.76000
Mg3773     Mg  0.14919237  0.40497109  0.55576613     1.58000
O3774       O  0.20869403  0.40414076  0.57354582    -0.83400
H3775       H  0.10235940  0.42570384  0.50350651    -0.07100
O3776       O  0.16398585  0.40729843  0.45917431    -0.88700
H3777       H  0.18825218  0.38421075  0.45073043    -0.07000
H3778       H  0.14347409  0.47917332  0.48513633    -0.07100
C3779       C  0.17385490  0.38821645  0.46151185     0.86400
C3780       C  0.11679523  0.41634114  0.50999010     0.87000
C3781       C  0.14560705  0.46141450  0.48076330     0.87100
H3782       H  0.23469517  0.41716713  0.49325346    -0.07100
O3783       O  0.19968944  0.38041072  0.52861271    -0.76100
Mg3784     Mg  0.18017584  0.44088064  0.45047472     1.58000
H3785       H  0.17893942  0.35294332  0.52623001    -0.07100
C3786       C  0.11591444  0.35589986  0.45951456     0.92000
O3787       O  0.12681017  0.42207130  0.42407349    -0.83400
C3788       C  0.13512797  0.44067660  0.41681719     0.92100
O3789       O  0.12136723  0.37984723  0.56566386    -0.83300
Mg3790     Mg  0.20841242  0.41673161  0.53812510     1.58200
O3791       O  0.12270766  0.37333983  0.44849480    -0.81700
O3792       O  0.22781027  0.47307478  0.52123150    -0.83400
O3793       O  0.25290683  0.62217534  0.40455862    -0.89000
C3794       C  0.22235390  0.56823995  0.37327959     0.87100
Mg3795     Mg  0.28815596  0.62200108  0.41316357     1.58100
O3796       O  0.20508128  0.57464034  0.43045165    -0.88700
O3797       O  0.21957998  0.62583735  0.42156349    -0.76000
C3798       C  0.29153372  0.54596035  0.49026047     0.92100
O3799       O  0.27407960  0.58209098  0.37401457    -0.75800
O3800       O  0.30541320  0.55786147  0.47885190    -0.83300
Mg3801     Mg  0.24570890  0.61018879  0.37125744     1.58000
C3802       C  0.21052061  0.51097730  0.46260964     0.92000
O3803       O  0.21822086  0.63758194  0.36773655    -0.81600
H3804       H  0.18220850  0.58640336  0.45276743    -0.06900
C3805       C  0.26066647  0.52977366  0.42841761     0.87000
O3806       O  0.27638317  0.61936775  0.45192189    -0.76100
O3807       O  0.22140951  0.58640780  0.38459477    -0.88900
O3808       O  0.19853971  0.52527039  0.45174669    -0.81700
C3809       C  0.16201777  0.55393536  0.39584727     0.92200
C3810       C  0.19729128  0.64176456  0.37174778     0.92000
Mg3811     Mg  0.24410778  0.55289119  0.46950160     1.58000
O3812       O  0.27640594  0.53474103  0.47971370    -0.81600
O3813       O  0.21000196  0.57152386  0.46684373    -0.75900
O3814       O  0.16601218  0.57517146  0.39318545    -0.81700
O3815       O  0.27033281  0.63396278  0.35545862    -0.83400
O3816       O  0.32046590  0.60001181  0.45351440    -0.81700
C3817       C  0.19828471  0.57788177  0.44998987     0.86400
O3818       O  0.26492497  0.58371839  0.45540033    -0.88900
O3819       O  0.24530321  0.54300242  0.43386191    -0.89000
O3820       O  0.28142165  0.53537071  0.43097344    -0.76000
Mg3821     Mg  0.19429833  0.59971082  0.40691121     1.58000
O3822       O  0.17617290  0.54043600  0.40522312    -0.83400
H3823       H  0.24646063  0.64672713  0.42720642    -0.07100
O3824       O  0.28791509  0.58475573  0.40908617    -0.88700
H3825       H  0.29938177  0.56162256  0.38608820    -0.07000
H3826       H  0.26331125  0.60638493  0.48152845    -0.07100
C3827       C  0.28775409  0.57546380  0.38958589     0.86400
C3828       C  0.23994610  0.63232208  0.41780710     0.87000
C3829       C  0.26780152  0.60330583  0.46392874     0.87100
H3830       H  0.25643656  0.51307160  0.42198216    -0.07100
O3831       O  0.22226561  0.54920688  0.38315072    -0.76100
Mg3832     Mg  0.29837372  0.56918677  0.44247147     1.58000
H3833       H  0.22524089  0.56903991  0.35510496    -0.07100
C3834       C  0.29175961  0.63281668  0.35716438     0.92000
O3835       O  0.32531802  0.62167870  0.42310262    -0.83400
C3836       C  0.33238422  0.61392622  0.44191274     0.92100
O3837       O  0.18439955  0.62803277  0.38258056    -0.83300
Mg3838     Mg  0.21144471  0.54037957  0.41908551     1.58200
O3839       O  0.30130896  0.62592496  0.37538910    -0.81700
O3840       O  0.22664148  0.51807164  0.47529439    -0.83400
O3841       O  0.37349965  0.51152659  0.59521079    -0.89000
C3842       C  0.32257823  0.48070699  0.63205394     0.87100
Mg3843     Mg  0.37281790  0.54749921  0.58705723     1.58100
O3844       O  0.32485510  0.46111954  0.57527921    -0.88700
O3845       O  0.37641005  0.47728999  0.57991350    -0.76000
C3846       C  0.29299575  0.54612930  0.51551548     0.92100
O3847       O  0.33616812  0.53295905  0.62897252    -0.75800
O3848       O  0.30502637  0.56094769  0.52538623    -0.83300
Mg3849     Mg  0.36453333  0.50477074  0.62925098     1.58000
C3850       C  0.26085192  0.46734028  0.54282539     0.92000
O3851       O  0.39186878  0.47763278  0.63198878    -0.81600
H3852       H  0.33626257  0.43841095  0.55267490    -0.06900
C3853       C  0.28036008  0.51684911  0.57872392     0.87000
O3854       O  0.36870837  0.53547365  0.54871690    -0.76100
O3855       O  0.33954004  0.48030397  0.61901661    -0.88900
O3856       O  0.27100415  0.45585787  0.55816451    -0.81700
C3857       C  0.30668477  0.41948775  0.61289927     0.92200
C3858       C  0.39589104  0.45649066  0.62985326     0.92000
Mg3859     Mg  0.30351546  0.50056910  0.53738512     1.58000
O3860       O  0.28319817  0.53135977  0.52769116    -0.81600
O3861       O  0.32252461  0.46693346  0.53903902    -0.75900
O3862       O  0.32782698  0.42479980  0.61399296    -0.81700
O3863       O  0.39078599  0.52860910  0.63987646    -0.83400
O3864       O  0.34754669  0.57580458  0.54817976    -0.81700
C3865       C  0.32801199  0.45457414  0.55567282     0.86400
O3866       O  0.33381130  0.52181901  0.54976053    -0.88900
O3867       O  0.29375649  0.50163186  0.57323587    -0.89000
O3868       O  0.28529078  0.53762702  0.57525672    -0.76000
Mg3869     Mg  0.35162007  0.45208848  0.59757195     1.58000
O3870       O  0.29172843  0.43240954  0.60373724    -0.83400
H3871       H  0.39608993  0.50418877  0.57079109    -0.07100
O3872       O  0.33583010  0.54637708  0.59377974    -0.88700
H3873       H  0.31441291  0.55785287  0.61839970    -0.07000
H3874       H  0.35323862  0.52096536  0.52105906    -0.07100
C3875       C  0.32806303  0.54633500  0.61390249     0.86400
C3876       C  0.38265819  0.49802214  0.58176448     0.87000
C3877       C  0.35198476  0.52566524  0.53882726     0.87100
H3878       H  0.26405689  0.51243975  0.58605185    -0.07100
O3879       O  0.30277843  0.47929443  0.62399487    -0.76100
Mg3880     Mg  0.31804726  0.55496675  0.56150097     1.58000
H3881       H  0.32493916  0.48398365  0.65002241    -0.07100
C3882       C  0.38732688  0.54967365  0.64136745     0.92000
O3883       O  0.37046344  0.58512959  0.57649467    -0.83400
C3884       C  0.36053187  0.58999873  0.55793031     0.92100
O3885       O  0.38162074  0.44287310  0.62077604    -0.83300
Mg3886     Mg  0.29128552  0.46812293  0.58880431     1.58200
O3887       O  0.37826415  0.56058661  0.62496462    -0.81700
O3888       O  0.27077216  0.48282766  0.53151724    -0.83400
O3889       O  0.25264580  0.45792843  0.06875101    -0.89000
C3890       C  0.23163332  0.39750414  0.03796869     0.87100
Mg3891     Mg  0.28597827  0.46037812  0.08491770     1.58100
O3892       O  0.20941234  0.41615703  0.09181702    -0.88700
O3893       O  0.21647766  0.46564778  0.07022392    -0.76000
C3894       C  0.29770516  0.35845134  0.13349851     0.92100
O3895       O  0.28946660  0.42941630  0.03745522    -0.75800
O3896       O  0.31163925  0.37183678  0.12341118    -0.83300
Mg3897     Mg  0.25536186  0.44781307  0.03319527     1.58000
C3898       C  0.20336852  0.36814325  0.14343384     0.92000
O3899       O  0.22344364  0.46570146  0.02069710    -0.81600
H3900       H  0.19663637  0.43911323  0.11430052    -0.06900
C3901       C  0.25707378  0.36834089  0.08499218     0.87000
O3902       O  0.27377409  0.45149862  0.12043164    -0.76100
O3903       O  0.23437798  0.41702477  0.04673420    -0.88900
O3904       O  0.19389095  0.37523974  0.12520265    -0.81700
C3905       C  0.16634345  0.38804410  0.05593990     0.92200
C3906       C  0.20824472  0.45443515  0.01025739     0.92000
Mg3907     Mg  0.24963623  0.39058713  0.13099360     1.58000
O3908       O  0.27668181  0.36323176  0.13581421    -0.81600
O3909       O  0.22145402  0.41872447  0.12746966    -0.75900
O3910       O  0.18051825  0.40075602  0.04574048    -0.81700
O3911       O  0.27276403  0.48266977  0.02793164    -0.83400
O3912       O  0.33105717  0.42544570  0.11229359    -0.81700
C3913       C  0.20850533  0.42535667  0.11131821     0.86400
O3914       O  0.27470526  0.41431527  0.11897243    -0.88900
O3915       O  0.24344894  0.37849082  0.09756403    -0.89000
O3916       O  0.27771938  0.37462983  0.08253725    -0.76000
Mg3917     Mg  0.20052220  0.43163261  0.05816896     1.58000
O3918       O  0.17082051  0.38002556  0.07548924    -0.83400
H3919       H  0.24113679  0.48796713  0.08001175    -0.07100
O3920       O  0.29291931  0.42593296  0.07397352    -0.88700
H3921       H  0.31670275  0.41444174  0.05249455    -0.07000
H3922       H  0.26970590  0.43162849  0.14832202    -0.07100
C3923       C  0.30049570  0.42287760  0.05470236     0.86400
C3924       C  0.23712216  0.47123529  0.07351750     0.87000
C3925       C  0.27330994  0.43245685  0.13027536     0.87100
H3926       H  0.25102016  0.35401572  0.07517122    -0.07100
O3927       O  0.22212547  0.38152274  0.04941170    -0.76100
Mg3928     Mg  0.30282874  0.40062650  0.09808324     1.58000
H3929       H  0.23700877  0.39442240  0.02061816    -0.07100
C3930       C  0.28840399  0.49009048  0.04101765     0.92000
O3931       O  0.32089553  0.46017109  0.10010107    -0.83400
C3932       C  0.33500795  0.44674901  0.10969998     0.92100
O3933       O  0.19446121  0.44252665  0.02169728    -0.83300
Mg3934     Mg  0.20826172  0.37896452  0.08757506     1.58200
O3935       O  0.30000063  0.47610884  0.05275287    -0.81700
O3936       O  0.22473082  0.36662562  0.14515772    -0.83400
O3937       O  0.20603162  0.50032896  0.92914159    -0.89000
C3938       C  0.14720153  0.47735202  0.96214736     0.87100
Mg3939     Mg  0.20899872  0.53401043  0.91482015     1.58100
O3940       O  0.16367319  0.45820846  0.90670599    -0.88700
O3941       O  0.21399827  0.46434972  0.92605722    -0.76000
C3942       C  0.10534825  0.55095377  0.87251370     0.92100
O3943       O  0.17854464  0.53493689  0.96426139    -0.75800
O3944       O  0.11952555  0.56369295  0.88303561    -0.83300
Mg3945     Mg  0.19687628  0.50079433  0.96493135     1.58000
C3946       C  0.11363479  0.45769719  0.85762542     0.92000
O3947       O  0.21638198  0.46918607  0.97295162    -0.81600
H3948       H  0.18583374  0.44825761  0.88208325    -0.06900
C3949       C  0.11718090  0.50753381  0.91888679     0.87000
O3950       O  0.19792910  0.52412467  0.87928867    -0.76100
O3951       O  0.16596495  0.48056727  0.95204879    -0.88900
O3952       O  0.12200577  0.44658834  0.87423428    -0.81700
C3953       C  0.13636943  0.41375634  0.93994110     0.92200
C3954       C  0.20633673  0.45454474  0.98504757     0.92000
Mg3955     Mg  0.13623730  0.50225145  0.87146098     1.58000
O3956       O  0.10913857  0.52995216  0.86881842    -0.81600
O3957       O  0.16441041  0.47371723  0.87221590    -0.75900
O3958       O  0.15048458  0.42568831  0.95119234    -0.81700
O3959       O  0.23043084  0.51754384  0.97088591    -0.83400
O3960       O  0.17404390  0.58099188  0.89168355    -0.81700
C3961       C  0.17203239  0.45949609  0.88681704     0.86400
O3962       O  0.16098614  0.52633630  0.88266903    -0.88900
O3963       O  0.12678049  0.49459258  0.90523942    -0.89000
O3964       O  0.12362844  0.52800536  0.92200938    -0.76000
Mg3965     Mg  0.18073301  0.44739222  0.93907929     1.58000
O3966       O  0.12748239  0.42109489  0.92167996    -0.83400
H3967       H  0.23562935  0.48954066  0.91607548    -0.07100
O3968       O  0.17555784  0.54178749  0.92821832    -0.88700
H3969       H  0.16479818  0.56394994  0.95167418    -0.07000
H3970       H  0.17663772  0.52240966  0.85223999    -0.07100
C3971       C  0.17278796  0.54777769  0.94806726     0.86400
C3972       C  0.21923795  0.48513195  0.92320756     0.87000
C3973       C  0.17846756  0.52494491  0.87038876     0.87100
H3974       H  0.10325456  0.50101786  0.92900836    -0.07100
O3975       O  0.13032573  0.46896489  0.95126643    -0.76100
Mg3976     Mg  0.14930491  0.55316374  0.90609998     1.58000
H3977       H  0.14553681  0.48142276  0.98003519    -0.07100
C3978       C  0.24004003  0.53343614  0.95984884     0.92000
O3979       O  0.20917619  0.56941312  0.90140878    -0.83400
C3980       C  0.19557808  0.58419732  0.89320067     0.92100
O3981       O  0.19372834  0.44018307  0.97513420    -0.83300
Mg3982     Mg  0.12664597  0.45857125  0.91245661     1.58200
O3983       O  0.22920164  0.54558714  0.94558575    -0.81700
O3984       O  0.11036107  0.47880269  0.85909944    -0.83400
O3985       O  0.29499086  0.57132189  0.99785585    -0.89000
C3986       C  0.35357795  0.53970937  0.02453465     0.87100
Mg3987     Mg  0.29220742  0.58479405  0.96332216     1.58100
O3988       O  0.33512164  0.59411624  0.04709750    -0.88700
O3989       O  0.28630600  0.57377983  0.03396565    -0.76000
C3990       C  0.39338203  0.63343258  0.95454530     0.92100
O3991       O  0.32617696  0.53694212  0.96581180    -0.75800
O3992       O  0.38055211  0.62272578  0.94066973    -0.83300
Mg3993     Mg  0.30569633  0.53603306  0.99877817     1.58000
C3994       C  0.38429759  0.64451267  0.04720412     0.92000
O3995       O  0.28410463  0.52866697  0.02893716    -0.81600
H3996       H  0.30941517  0.61628085  0.05334147    -0.06900
C3997       C  0.38306999  0.58458207  0.99608442     0.87000
O3998       O  0.30089548  0.62118321  0.97278655    -0.76100
O3999       O  0.33510120  0.54991705  0.02062854    -0.88900
O4000       O  0.37880263  0.62654115  0.05805848    -0.81700
C4001       C  0.36259819  0.56015611  0.08933428     0.92200
C4002       C  0.29288319  0.51493661  0.04281170     0.92000
Mg4003     Mg  0.35982807  0.63027843  0.00142632     1.58000
O4004       O  0.38826511  0.63571218  0.97546761    -0.81600
O4005       O  0.33089447  0.62678078  0.02829563    -0.75900
O4006       O  0.34756624  0.54931846  0.07794399    -0.81700
O4007       O  0.27356667  0.52785508  0.98070881    -0.83400
O4008       O  0.32812344  0.61140706  0.92106998    -0.81700
C4009       C  0.32444972  0.61253070  0.04336879     0.86400
O4010       O  0.33736202  0.61669455  0.97669230    -0.88900
O4011       O  0.37253582  0.59743446  0.00919062    -0.89000
O4012       O  0.37753030  0.58181304  0.97524727    -0.76000
Mg4013     Mg  0.31837076  0.56044763  0.05366927     1.58000
O4014       O  0.37193256  0.57817919  0.08183572    -0.83400
H4015       H  0.26534424  0.58441415  0.00846947    -0.07100
O4016       O  0.32681119  0.57288951  0.95764114    -0.88700
H4017       H  0.34073130  0.54956066  0.93715783    -0.07000
H4018       H  0.32249038  0.64777949  0.97704611    -0.07100
C4019       C  0.33144948  0.55309704  0.95265598     0.86400
C4020       C  0.28158471  0.57708305  0.01303202     0.87000
C4021       C  0.32044356  0.62960191  0.97493987     0.87100
H4022       H  0.39714593  0.57482182  0.00276921    -0.07100
O4023       O  0.36994292  0.55045226  0.03387928    -0.76100
Mg4024     Mg  0.35229059  0.59696976  0.94903345     1.58000
H4025       H  0.35540956  0.52189744  0.02023758    -0.07100
C4026       C  0.26404547  0.53826166  0.96443212     0.92000
O4027       O  0.29258606  0.59835003  0.92702743    -0.83400
C4028       C  0.30736459  0.60882465  0.91486419     0.92100
O4029       O  0.30579245  0.52309968  0.05798373    -0.83300
Mg4030     Mg  0.37272782  0.58894977  0.04499155     1.58200
O4031       O  0.27497299  0.55218210  0.95190253    -0.81700
O4032       O  0.38192399  0.64610341  0.02598030    -0.83400
O4033       O  0.70663785  0.24691011  0.32011659    -0.89000
C4034       C  0.64799992  0.27366140  0.28904155     0.87100
Mg4035     Mg  0.70938566  0.21226129  0.33296436     1.58100
O4036       O  0.66650977  0.29557403  0.34351915    -0.88700
O4037       O  0.71534802  0.28293720  0.32323069    -0.76000
C4038       C  0.60805397  0.20354155  0.38168353     0.92100
O4039       O  0.67536063  0.21539194  0.28521148    -0.75800
O4040       O  0.62086657  0.18961433  0.37096803    -0.83300
Mg4041     Mg  0.69584278  0.24832809  0.28483648     1.58000
C4042       C  0.61767388  0.29596358  0.39421146     0.92000
O4043       O  0.71760383  0.27845096  0.27816713    -0.81600
H4044       H  0.69201022  0.30227917  0.36577701    -0.06900
C4045       C  0.61842655  0.24525453  0.33371729     0.87000
O4046       O  0.70071854  0.22109042  0.36956010    -0.76100
O4047       O  0.66652003  0.26974600  0.29917008    -0.88900
O4048       O  0.62315674  0.30674490  0.37618343    -0.81700
C4049       C  0.63886685  0.33765954  0.30957616     0.92200
C4050       C  0.70897236  0.29246305  0.26451567     0.92000
Mg4051     Mg  0.64185097  0.25016458  0.37942208     1.58000
O4052       O  0.61339301  0.22434120  0.38427809    -0.81600
O4053       O  0.67075976  0.27706286  0.37631616    -0.75900
O4054       O  0.65391130  0.32627382  0.29879874    -0.81700
O4055       O  0.72776873  0.23056258  0.27602378    -0.83400
O4056       O  0.67347926  0.16996414  0.35913570    -0.81700
C4057       C  0.67711410  0.29212317  0.36201956     0.86400
O4058       O  0.66427682  0.22554578  0.36529029    -0.88900
O4059       O  0.62904286  0.25814270  0.34670580    -0.89000
O4060       O  0.62398698  0.22449594  0.33051173    -0.76000
Mg4061     Mg  0.68325310  0.30258362  0.30998370     1.58000
O4062       O  0.62979476  0.33048550  0.32785441    -0.83400
H4063       H  0.73622286  0.25723913  0.33353993    -0.07100
O4064       O  0.67471702  0.20691394  0.32109433    -0.88700
H4065       H  0.66079036  0.18665346  0.29758698    -0.07000
H4066       H  0.67927017  0.22527008  0.39631919    -0.07100
C4067       C  0.67007132  0.20210633  0.30125590     0.86400
C4068       C  0.72003367  0.26195395  0.32619558     0.87000
C4069       C  0.68122647  0.22341491  0.37809581     0.87100
H4070       H  0.60428285  0.25210100  0.32417106    -0.07100
O4071       O  0.63160581  0.28285256  0.29989999    -0.76100
Mg4072     Mg  0.64924901  0.19813516  0.34521783     1.58000
H4073       H  0.64614298  0.26946461  0.27120336    -0.07100
C4074       C  0.73748171  0.21438993  0.28636636     0.92000
O4075       O  0.70896223  0.17581413  0.34581374    -0.83400
C4076       C  0.69418559  0.16365843  0.35628292     0.92100
O4077       O  0.69594972  0.30749988  0.27273922    -0.83300
Mg4078     Mg  0.62894101  0.29380325  0.33847497     1.58200
O4079       O  0.72665579  0.20153248  0.30007739    -0.81700
O4080       O  0.61977268  0.27469113  0.39573685    -0.83400
O4081       O  0.79525499  0.17954700  0.24893585    -0.89000
C4082       C  0.85417543  0.21197621  0.22555464     0.87100
Mg4083     Mg  0.79226065  0.16567846  0.28280466     1.58100
O4084       O  0.83725450  0.15665801  0.20690230    -0.88700
O4085       O  0.78710768  0.17611697  0.21300422    -0.76000
C4086       C  0.89483460  0.12228549  0.30008170     0.92100
O4087       O  0.82293050  0.21497561  0.28307749    -0.75800
O4088       O  0.88091847  0.13341961  0.31253876    -0.83300
Mg4089     Mg  0.80448313  0.21530414  0.24900345     1.58000
C4090       C  0.88652352  0.10690178  0.20660943     0.92000
O4091       O  0.78499761  0.22266892  0.21738994    -0.81600
H4092       H  0.81485397  0.13224198  0.19707692    -0.06900
C4093       C  0.88412773  0.16861133  0.25594905     0.87000
O4094       O  0.80283235  0.12991207  0.27327833    -0.76100
O4095       O  0.83528533  0.20212727  0.22880249    -0.88900
O4096       O  0.87850551  0.12356060  0.19530538    -0.81700
C4097       C  0.86453897  0.18931596  0.16213103     0.92200
C4098       C  0.79502734  0.23486503  0.20284504     0.92000
Mg4099     Mg  0.86425105  0.12145528  0.25115838     1.58000
O4100       O  0.89116316  0.11842619  0.27907003    -0.81600
O4101       O  0.83612010  0.12232346  0.22264029    -0.75900
O4102       O  0.85057554  0.20076818  0.17405664    -0.81700
O4103       O  0.77096164  0.22144726  0.26566371    -0.83400
O4104       O  0.82719791  0.14264580  0.32954979    -0.81700
C4105       C  0.82868608  0.13689049  0.20830144     0.86400
O4106       O  0.83974551  0.13337512  0.27506353    -0.88900
O4107       O  0.87433717  0.15496801  0.24315969    -0.89000
O4108       O  0.87770098  0.17209037  0.27638560    -0.76000
Mg4109     Mg  0.82031178  0.18894572  0.19578265     1.58000
O4110       O  0.87334477  0.17104301  0.16954899    -0.83400
H4111       H  0.76561777  0.16637988  0.23842722    -0.07100
O4112       O  0.82582576  0.17897873  0.29017932    -0.88700
H4113       H  0.83681180  0.20254817  0.31209851    -0.07000
H4114       H  0.82414860  0.10284797  0.27195141    -0.07100
C4115       C  0.82871815  0.19885600  0.29599981     0.86400
C4116       C  0.78198040  0.17346762  0.23385625     0.87000
C4117       C  0.82229945  0.12103557  0.27412321     0.87100
H4118       H  0.89819901  0.17844242  0.24930710    -0.07100
O4119       O  0.87096836  0.20085206  0.21728003    -0.76100
Mg4120     Mg  0.85180990  0.15676211  0.30170835     1.58000
H4121       H  0.85602621  0.22986061  0.22952157    -0.07100
C4122       C  0.76160838  0.21041489  0.28170604     0.92000
O4123       O  0.79202360  0.15250022  0.31829923    -0.83400
C4124       C  0.80571387  0.14411810  0.33289863     0.92100
O4125       O  0.80731760  0.22497181  0.18817958    -0.83300
Mg4126     Mg  0.87431881  0.16196858  0.20706931     1.58200
O4127       O  0.77290663  0.19687708  0.29423171    -0.81700
O4128       O  0.88985380  0.10855705  0.22771103    -0.83400
O4129       O  0.74935214  0.31857343  0.20708485    -0.89000
C4130       C  0.77036468  0.28694550  0.14705070     0.87100
Mg4131     Mg  0.71587577  0.33464970  0.20955192     1.58100
O4132       O  0.79283370  0.34117747  0.16486221    -0.88700
O4133       O  0.78557043  0.32008940  0.21463879    -0.76000
C4134       C  0.70381611  0.38232579  0.10709384     0.92100
O4135       O  0.71249239  0.28692553  0.17908541    -0.75800
O4136       O  0.68980757  0.37240977  0.12056800    -0.83300
Mg4137     Mg  0.74672524  0.28292431  0.19729834     1.58000
C4138       C  0.79757282  0.39154451  0.11581896     0.92000
O4139       O  0.77884587  0.27072403  0.21487713    -0.81600
H4140       H  0.80480693  0.36394406  0.18794579    -0.06900
C4141       C  0.74425464  0.33361949  0.11754113     0.87000
O4142       O  0.72784840  0.37013685  0.20034552    -0.76100
O4143       O  0.76763392  0.29617376  0.16634599    -0.88900
O4144       O  0.80711139  0.37347145  0.12310710    -0.81700
C4145       C  0.83549349  0.30517233  0.13635240     0.92200
C4146       C  0.79380874  0.26010884  0.20342643     0.92000
Mg4147     Mg  0.75169091  0.37977346  0.13925469     1.58000
O4148       O  0.72482823  0.38446105  0.11186109    -0.81600
O4149       O  0.77984014  0.37653885  0.16740576    -0.75900
O4150       O  0.82190082  0.29525679  0.14992858    -0.81700
O4151       O  0.72947773  0.27798586  0.23229475    -0.83400
O4152       O  0.67046290  0.36144327  0.17444152    -0.81700
C4153       C  0.79313195  0.36068940  0.17409011     0.86400
O4154       O  0.72666714  0.36821558  0.16319098    -0.88900
O4155       O  0.75786205  0.34611902  0.12774557    -0.89000
O4156       O  0.72356902  0.33134481  0.12372385    -0.76000
Mg4157     Mg  0.80164136  0.30778493  0.18069293     1.58000
O4158       O  0.83060450  0.32444650  0.12795320    -0.83400
H4159       H  0.76098125  0.33007284  0.23698800    -0.16700
O4160       O  0.70875703  0.32336613  0.17522197    -0.88700
H4161       H  0.68505793  0.30162473  0.16413261    -0.07000
H4162       H  0.73152643  0.39781162  0.18010746    -0.07100
C4163       C  0.70130192  0.30402483  0.17242981     0.86400
C4164       C  0.76493428  0.32344519  0.22028379     0.87000
C4165       C  0.72808064  0.37975697  0.18118295     0.87100
H4166       H  0.75034313  0.32373116  0.10326755    -0.07100
O4167       O  0.77969262  0.29807684  0.13077516    -0.76100
Mg4168     Mg  0.69863350  0.34719334  0.14965788     1.58000
H4169       H  0.76512862  0.26949062  0.14441839    -0.07100
C4170       C  0.71367766  0.29091126  0.23969867     0.92000
O4171       O  0.68079156  0.34964816  0.20927979    -0.83400
C4172       C  0.66655128  0.35896216  0.19577148     0.92100
O4173       O  0.80787736  0.27144237  0.19177136    -0.83300
Mg4174     Mg  0.79309123  0.33622686  0.12762905     1.58200
O4175       O  0.70202921  0.30262236  0.22573908    -0.81700
O4176       O  0.77623827  0.39353190  0.11488528    -0.83400
O4177       O  0.43223705  0.20393142  0.00402511    -0.89000
C4178       C  0.46137655  0.14409845  0.97857053     0.87100
Mg4179     Mg  0.41809750  0.20702347  0.03792546     1.58100
O4180       O  0.40714978  0.16406712  0.95718444    -0.88700
O4181       O  0.42968845  0.21268659  0.96809243    -0.76000
C4182       C  0.36746346  0.10726350  0.04922415     0.92100
O4183       O  0.46466348  0.17238065  0.03732067    -0.75800
O4184       O  0.37770835  0.12036562  0.06318904    -0.83300
Mg4185     Mg  0.46723501  0.19238475  0.00410666     1.58000
C4186       C  0.35495015  0.11605891  0.95587810     0.92000
O4187       O  0.47654188  0.21316414  0.97365520    -0.81600
H4188       H  0.38502060  0.18915621  0.94869685    -0.06900
C4189       C  0.41516664  0.11627457  0.00717939     0.87000
O4190       O  0.38171375  0.19981922  0.02745880    -0.76100
O4191       O  0.45227175  0.16319896  0.98235195    -0.88900
O4192       O  0.37308212  0.12164156  0.94524134    -0.81700
C4193       C  0.44004593  0.13584486  0.91370502     0.92200
C4194       C  0.48853379  0.20316958  0.95892542     0.92000
Mg4195     Mg  0.36983202  0.14014123  0.00166457     1.58000
O4196       O  0.36501817  0.11233750  0.02830057    -0.81600
O4197       O  0.37347738  0.16854316  0.97405713    -0.75900
O4198       O  0.45146353  0.14988399  0.92571585    -0.81700
O4199       O  0.47548607  0.22491015  0.02219383    -0.83400
O4200       O  0.39034193  0.17291252  0.08236732    -0.81700
C4201       C  0.38841761  0.17461623  0.95944795     0.86400
O4202       O  0.38362910  0.16284693  0.02632865    -0.88900
O4203       O  0.40257190  0.12692934  0.99396296    -0.89000
O4204       O  0.41799888  0.12199568  0.02796267    -0.76000
Mg4205     Mg  0.44120007  0.17971979  0.94934979     1.58000
O4206       O  0.42161953  0.12705849  0.92092665    -0.83400
H4207       H  0.42068711  0.23425428  0.99370861    -0.07100
O4208       O  0.42841107  0.17230220  0.04430503    -0.88700
H4209       H  0.45083467  0.15818906  0.06560319    -0.07000
H4210       H  0.35375748  0.17987451  0.02400762    -0.07100
C4211       C  0.44796516  0.16738120  0.04993632     0.86400
C4212       C  0.42703919  0.21764560  0.98901229     0.87000
C4213       C  0.37198368  0.18077450  0.02655603     0.87100
H4214       H  0.42459322  0.10188336  0.00066674    -0.07100
O4215       O  0.44971941  0.12821965  0.96939298    -0.76100
Mg4216     Mg  0.40373240  0.14795691  0.05405281     1.58000
H4217       H  0.47908284  0.14131058  0.98282019    -0.07100
C4218       C  0.46407711  0.23382406  0.03823107     0.92000
O4219       O  0.40416476  0.20733166  0.07315416    -0.83400
C4220       C  0.39372575  0.19400311  0.08675786     0.92100
O4221       O  0.47847158  0.19098827  0.94426422    -0.83300
Mg4222     Mg  0.41103814  0.12645164  0.95816412     1.58200
O4223       O  0.45103897  0.22176069  0.05056347    -0.81700
O4224       O  0.35344269  0.11764242  0.97723342    -0.83400
O4225       O  0.56989356  0.25165807  0.96024236    -0.89000
C4226       C  0.53722275  0.22787427  0.90184914     0.87100
Mg4227     Mg  0.58399817  0.28608523  0.96186587     1.58100
O4228       O  0.59312385  0.20675312  0.91738943    -0.88700
O4229       O  0.57380273  0.21559422  0.96787206    -0.76000
C4230       C  0.62894932  0.29807690  0.85835739     0.92100
O4231       O  0.53525886  0.28616052  0.93275234    -0.75800
O4232       O  0.61860215  0.31196089  0.87160694    -0.83300
Mg4233     Mg  0.53381755  0.25207064  0.95169187     1.58000
C4234       C  0.64191640  0.20530667  0.86647772     0.92000
O4235       O  0.52455539  0.21970214  0.97011885    -0.81600
H4236       H  0.61660074  0.19768003  0.94100339    -0.06900
C4237       C  0.58173584  0.25580935  0.87035726     0.87000
O4238       O  0.62000364  0.27631298  0.95197452    -0.76100
O4239       O  0.54720258  0.23128774  0.92061917    -0.88900
O4240       O  0.62409853  0.19449273  0.87274256    -0.81700
C4241       C  0.55707010  0.16362312  0.89042046     0.92200
C4242       C  0.51380691  0.20444952  0.95924596     0.92000
Mg4243     Mg  0.62849102  0.25086894  0.89164243     1.58000
O4244       O  0.63188730  0.27729429  0.86360435    -0.81600
O4245       O  0.62699827  0.22334117  0.92017145    -0.75900
O4246       O  0.54784272  0.17621724  0.90538819    -0.81700
O4247       O  0.52883666  0.26943874  0.98662946    -0.83400
O4248       O  0.60805394  0.33187108  0.92525419    -0.81700
C4249       C  0.61243908  0.20866288  0.92683767     0.86400
O4250       O  0.61592287  0.27559977  0.91510102    -0.88900
O4251       O  0.59509970  0.24278112  0.88023699    -0.89000
O4252       O  0.57885743  0.27647125  0.87635989    -0.76000
Mg4253     Mg  0.56068556  0.19787708  0.93497612     1.58000
O4254       O  0.57560285  0.16933775  0.88078437    -0.83400
H4255       H  0.58352604  0.24086022  0.98953369    -0.07100
O4256       O  0.57132564  0.29213578  0.92776717    -0.88700
H4257       H  0.54781950  0.31415546  0.91686607    -0.07000
H4258       H  0.64678353  0.27380017  0.93030660    -0.07100
C4259       C  0.55146109  0.29827750  0.92539044     0.86400
C4260       C  0.57627085  0.23643744  0.97322377     0.87000
C4261       C  0.62858821  0.27591490  0.93233514     0.87100
H4262       H  0.57161171  0.24919165  0.85650342    -0.07100
O4263       O  0.54802688  0.21886454  0.88519761    -0.76100
Mg4264     Mg  0.59418255  0.30270590  0.90135157     1.58000
H4265       H  0.51942934  0.23226999  0.89999092    -0.07100
C4266       C  0.54116234  0.28594325  0.99344559     0.92000
O4267       O  0.59693396  0.32189534  0.96045161    -0.83400
C4268       C  0.60557875  0.33618058  0.94651182     0.92100
O4269       O  0.52508607  0.19028831  0.94771363    -0.83300
Mg4270     Mg  0.58649749  0.20709758  0.88018132     1.58200
O4271       O  0.55165265  0.29812734  0.97893920    -0.81700
O4272       O  0.64351112  0.22660565  0.86830187    -0.83400
O4273       O  0.49863263  0.29300109  0.07478946    -0.89000
C4274       C  0.52271677  0.35151526  0.04077208     0.87100
Mg4275     Mg  0.46424032  0.28995957  0.08843983     1.58100
O4276       O  0.54403106  0.33500151  0.09549062    -0.88700
O4277       O  0.53489848  0.28528223  0.07711059    -0.76000
C4278       C  0.45138059  0.39453310  0.13044474     0.92100
O4279       O  0.46501542  0.32046751  0.03827465    -0.75800
O4280       O  0.43881351  0.38058263  0.11945412    -0.83300
Mg4281     Mg  0.49900669  0.30194209  0.03883427     1.58000
C4282       C  0.54608801  0.38315834  0.14536760     0.92000
O4283       O  0.53025486  0.28183307  0.03246568    -0.81600
H4284       H  0.55206873  0.31139686  0.11936952    -0.06900
C4285       C  0.49451276  0.38187192  0.08395039     0.87000
O4286       O  0.47285059  0.30181279  0.12415674    -0.76100
O4287       O  0.51935185  0.33305758  0.05130010    -0.88900
O4288       O  0.55583039  0.37586271  0.12742062    -0.81700
C4289       C  0.58675787  0.36305115  0.06069359     0.92200
C4290       C  0.54349419  0.29078814  0.01819531     0.92000
Mg4291     Mg  0.49962964  0.36225004  0.13149587     1.58000
O4292       O  0.47232637  0.39046387  0.13466155    -0.81600
O4293       O  0.52716194  0.33332860  0.12947581    -0.75900
O4294       O  0.57530399  0.34791004  0.05014753    -0.81700
O4295       O  0.48258811  0.26862780  0.03232681    -0.83400
O4296       O  0.42026307  0.32661756  0.11161402    -0.81700
C4297       C  0.54157516  0.32584911  0.11493650     0.86400
O4298       O  0.47528127  0.33837278  0.11884390    -0.88900
O4299       O  0.50731946  0.37247288  0.09788540    -0.89000
O4300       O  0.47410986  0.37531705  0.08037465    -0.76000
Mg4301     Mg  0.55283506  0.31784386  0.06262291     1.58000
O4302       O  0.57989639  0.37152680  0.07933645    -0.83400
H4303       H  0.50999089  0.26407257  0.08874136    -0.07100
O4304       O  0.45782366  0.32344303  0.07422995    -0.88700
H4305       H  0.43586627  0.33425347  0.05063037    -0.07000
H4306       H  0.47606380  0.32419526  0.15021079    -0.07100
C4307       C  0.45199063  0.32621991  0.05434985     0.86400
C4308       C  0.51412625  0.28016165  0.08085163     0.87000
C4309       C  0.47416263  0.32164961  0.13207142     0.87100
H4310       H  0.50121962  0.39564590  0.07377023    -0.07100
O4311       O  0.53169671  0.36837990  0.05116589    -0.76100
Mg4312     Mg  0.44823375  0.35046130  0.09639428     1.58000
H4313       H  0.51826440  0.35292358  0.02296185    -0.07100
C4314       C  0.46715628  0.25809697  0.04312280     0.92000
O4315       O  0.42755700  0.29041912  0.10130320    -0.83400
C4316       C  0.41461947  0.30557666  0.11021706     0.92100
O4317       O  0.55836042  0.30438057  0.02576459    -0.83300
Mg4318     Mg  0.54294584  0.37199505  0.08972962     1.58200
O4319       O  0.45447506  0.26797895  0.05775323    -0.81700
O4320       O  0.52476620  0.38604870  0.14618364    -0.83400
O4321       O  0.45371127  0.68386474  0.49894578    -0.89000
C4322       C  0.39415203  0.71595821  0.52049334     0.87100
Mg4323     Mg  0.45671894  0.66801061  0.46594210     1.58100
O4324       O  0.41290183  0.66198154  0.54096663    -0.88700
O4325       O  0.46246578  0.68281305  0.53483121    -0.76000
C4326       C  0.35419017  0.62206089  0.45111495     0.92100
O4327       O  0.42508651  0.71616081  0.46298916    -0.75800
O4328       O  0.36839982  0.63203142  0.43794379    -0.83300
Mg4329     Mg  0.44373844  0.71931047  0.49683904     1.58000
C4330       C  0.36500945  0.61113739  0.54558888     0.92000
O4331       O  0.46311717  0.72927547  0.52806588    -0.81600
H4332       H  0.43551718  0.63853401  0.55250507    -0.06900
C4333       C  0.36512265  0.66984345  0.49252808     0.87000
O4334       O  0.44692255  0.63283328  0.47803331    -0.76100
O4335       O  0.41340812  0.70666381  0.51782926    -0.88900
O4336       O  0.37349056  0.62866347  0.55504359    -0.81700
C4337       C  0.38455834  0.69576568  0.58463048     0.92200
C4338       C  0.45277785  0.74163998  0.54228795     0.92000
Mg4339     Mg  0.38541700  0.62330628  0.49983363     1.58000
O4340       O  0.35795069  0.61919315  0.47230397    -0.81600
O4341       O  0.41402041  0.62642772  0.52802732    -0.75900
O4342       O  0.39807427  0.70717233  0.57218593    -0.81700
O4343       O  0.47712245  0.72488571  0.47964398    -0.83400
O4344       O  0.42253628  0.64161707  0.42020689    -0.81700
C4345       C  0.42155690  0.64218568  0.54107980     0.86400
O4346       O  0.40977505  0.63376153  0.47485869    -0.88900
O4347       O  0.37555851  0.65727198  0.50583273    -0.89000
O4348       O  0.37118256  0.67237797  0.47187357    -0.76000
Mg4349     Mg  0.42878318  0.69525077  0.55122806     1.58000
O4350       O  0.37657569  0.67681703  0.57814793    -0.83400
H4351       H  0.48399309  0.67248681  0.50967559    -0.07100
O4352       O  0.42278097  0.67969537  0.45816225    -0.88700
H4353       H  0.41105765  0.70164219  0.43500860    -0.07000
H4354       H  0.42715433  0.60479025  0.48131748    -0.07100
C4355       C  0.41941078  0.69912608  0.45119684     0.86400
C4356       C  0.46742498  0.67916713  0.51410476     0.87000
C4357       C  0.42797934  0.62277711  0.47749205     0.87100
H4358       H  0.35081053  0.67953401  0.49884393    -0.07100
O4359       O  0.37769178  0.70463049  0.52916213    -0.76100
Mg4360     Mg  0.39742221  0.65629018  0.44751126     1.58000
H4361       H  0.39169710  0.73355003  0.51566693    -0.07100
C4362       C  0.48606099  0.71297080  0.46399023     0.92000
O4363       O  0.45735838  0.65277871  0.43131953    -0.83400
C4364       C  0.44402346  0.64353580  0.41693350     0.92100
O4365       O  0.44072658  0.73192689  0.55728436    -0.83300
Mg4366     Mg  0.37577138  0.66620402  0.54126853     1.58200
O4367       O  0.47421057  0.69927507  0.45217051    -0.81700
O4368       O  0.36014834  0.61120243  0.52470471    -0.83400
O4369       O  0.50101936  0.82142774  0.54015652    -0.89000
C4370       C  0.47526213  0.79035293  0.59846418     0.87100
Mg4371     Mg  0.53536918  0.83509884  0.53926930     1.58100
O4372       O  0.45637968  0.84630345  0.58150634    -0.88700
O4373       O  0.46531639  0.82607768  0.53135402    -0.76000
C4374       C  0.54683179  0.88093107  0.64229468     0.92100
O4375       O  0.53433679  0.78678591  0.56916431    -0.75800
O4376       O  0.56051755  0.87013843  0.62924018    -0.83300
Mg4377     Mg  0.50074223  0.78565639  0.54941372     1.58000
C4378       C  0.45454597  0.89572970  0.63209719     0.92000
O4379       O  0.46878807  0.77752614  0.53026925    -0.81600
H4380       H  0.44734153  0.87017514  0.55826662    -0.06900
C4381       C  0.50353854  0.83444914  0.63008478     0.87000
O4382       O  0.52532835  0.87117160  0.54840775    -0.76100
O4383       O  0.47937826  0.79992876  0.57960866    -0.88900
O4384       O  0.44323179  0.87862890  0.62485455    -0.81700
C4385       C  0.41162739  0.81193233  0.60814657     0.92200
C4386       C  0.45332032  0.76686364  0.54087743     0.92000
Mg4387     Mg  0.49994865  0.88110062  0.60867614     1.58000
O4388       O  0.52610376  0.88417827  0.63700120    -0.81600
O4389       O  0.47263133  0.88032384  0.57972011    -0.75900
O4390       O  0.42418174  0.80229963  0.59340272    -0.81700
O4391       O  0.51907053  0.77960642  0.51530479    -0.83400
O4392       O  0.58039241  0.85925928  0.57648698    -0.81700
C4393       C  0.45819314  0.86579943  0.57247136     0.86400
O4394       O  0.52468854  0.86822360  0.58545252    -0.88900
O4395       O  0.49110388  0.84793190  0.61964843    -0.89000
O4396       O  0.52427458  0.83102397  0.62462652    -0.76000
Mg4397     Mg  0.44668365  0.81397301  0.56406761     1.58000
O4398       O  0.41736072  0.83061759  0.61736452    -0.83400
H4399       H  0.49147879  0.83462729  0.51023429    -0.07100
O4400       O  0.54042634  0.82286398  0.57363136    -0.88700
H4401       H  0.56207436  0.79944006  0.58541667    -0.07000
H4402       H  0.52259849  0.89852741  0.56924916    -0.07100
C4403       C  0.54640404  0.80302346  0.57647762     0.86400
C4404       C  0.48636933  0.82786255  0.52656287     0.87000
C4405       C  0.52487523  0.88031643  0.56779281     0.87100
H4406       H  0.49632572  0.82471347  0.64392958    -0.07100
O4407       O  0.46613473  0.80162922  0.61474062    -0.76100
Mg4408     Mg  0.55099199  0.84578995  0.59983570     1.58000
H4409       H  0.47916579  0.77250457  0.60070939    -0.07100
C4410       C  0.53600037  0.79147130  0.50870010     0.92000
O4411       O  0.57099967  0.84792124  0.54124592    -0.83400
C4412       C  0.58500148  0.85667977  0.55535156     0.92100
O4413       O  0.43852585  0.77829197  0.55147882    -0.83300
Mg4414     Mg  0.45521440  0.84043971  0.61878084     1.58200
O4415       O  0.54777473  0.80240991  0.52319275    -0.81700
O4416       O  0.47597296  0.89577897  0.63229280    -0.83400
O4417       O  0.54459513  0.74859198  0.42747166    -0.89000
C4418       C  0.60311766  0.77134758  0.46155260     0.87100
Mg4419     Mg  0.54154446  0.71483397  0.41325919     1.58100
O4420       O  0.58674293  0.79323003  0.40713043    -0.88700
O4421       O  0.53678425  0.78475378  0.42532058    -0.76000
C4422       C  0.64563970  0.70155502  0.37007681     0.92100
O4423       O  0.57241701  0.71426858  0.46297458    -0.75800
O4424       O  0.63146578  0.68889098  0.38066713    -0.83300
Mg4425     Mg  0.55370212  0.74816061  0.46329789     1.58000
C4426       C  0.63538500  0.79600732  0.35762551     0.92000
O4427       O  0.53315962  0.77913406  0.47012525    -0.81600
H4428       H  0.56319681  0.80191906  0.38342226    -0.06900
C4429       C  0.63370624  0.74364895  0.41755166     0.87000
O4430       O  0.55395633  0.72437322  0.37815368    -0.76100
O4431       O  0.58458320  0.76845777  0.45101934    -0.88900
O4432       O  0.62800845  0.80555178  0.37562434    -0.81700
C4433       C  0.61439904  0.83530122  0.44242546     0.92200
C4434       C  0.54185814  0.79274485  0.48416982     0.92000
Mg4435     Mg  0.61364680  0.74933246  0.37044636     1.58000
O4436       O  0.64188232  0.72260883  0.36651094    -0.81600
O4437       O  0.58480814  0.77689859  0.37293723    -0.75900
O4438       O  0.59959516  0.82354904  0.45305380    -0.81700
O4439       O  0.52072372  0.73152168  0.46987715    -0.83400
O4440       O  0.57732724  0.67152154  0.38864239    -0.81700
C4441       C  0.57754702  0.79120285  0.38766806     0.86400
O4442       O  0.59065608  0.72498385  0.38169438    -0.88900
O4443       O  0.62406242  0.75666648  0.40406021    -0.89000
O4444       O  0.62715157  0.72324906  0.42069839    -0.76000
Mg4445     Mg  0.56949914  0.80195534  0.43997483     1.58000
O4446       O  0.62303702  0.82862225  0.42379989    -0.83400
H4447       H  0.51556112  0.75990620  0.41367878    -0.07100
O4448       O  0.57511672  0.70827728  0.42678265    -0.88700
H4449       H  0.58623161  0.68561937  0.44956681    -0.07000
H4450       H  0.57548040  0.72775154  0.35146951    -0.07100
C4451       C  0.57809740  0.70181098  0.44644120     0.86400
C4452       C  0.53166886  0.76404085  0.42154549     0.87000
C4453       C  0.57361010  0.72515808  0.36958600     0.87100
H4454       H  0.64765782  0.75010920  0.42764851    -0.07100
O4455       O  0.62012794  0.78015674  0.45124545    -0.76100
Mg4456     Mg  0.60165667  0.69875039  0.40397329     1.58000
H4457       H  0.60448341  0.76658421  0.47928714    -0.07100
C4458       C  0.51021052  0.71627552  0.45888048     0.92000
O4459       O  0.54141313  0.67882643  0.39988174    -0.83400
C4460       C  0.55629066  0.66599312  0.39052379     0.92100
O4461       O  0.55575398  0.80731883  0.47657563    -0.83300
Mg4462     Mg  0.62372746  0.79200622  0.41291361     1.58200
O4463       O  0.51999657  0.70406834  0.44383356    -0.81700
O4464       O  0.63751810  0.77466491  0.35626757    -0.83400
O4465       O  0.59796002  0.37860894  0.24420020    -0.89000
C4466       C  0.62978823  0.43118809  0.27660945     0.87100
Mg4467     Mg  0.58945524  0.37868935  0.20844628     1.58100
O4468       O  0.57313513  0.42715938  0.29369592    -0.88700
O4469       O  0.58076710  0.37607989  0.27758688    -0.76000
C4470       C  0.51365908  0.45626877  0.20833441     0.92100
O4471       O  0.62818725  0.41982841  0.22502372    -0.75800
O4472       O  0.52407186  0.44379192  0.19425022    -0.83300
Mg4473     Mg  0.63073363  0.39133503  0.25263829     1.58000
C4474       C  0.53912717  0.48957989  0.28658968     0.92000
O4475       O  0.63492230  0.36325748  0.27912478    -0.81600
H4476       H  0.55101557  0.41511489  0.31659747    -0.06900
C4477       C  0.57614556  0.47117787  0.23836013     0.87000
O4478       O  0.55090135  0.38163527  0.22059971    -0.76100
O4479       O  0.61812395  0.41380874  0.27668680    -0.88900
O4480       O  0.55306803  0.47890164  0.29927007    -0.81700
C4481       C  0.60946786  0.44660152  0.33651652     0.92200
C4482       C  0.63105442  0.35923745  0.30005237     0.92000
Mg4483     Mg  0.53523067  0.44678581  0.25415961     1.58000
O4484       O  0.52534659  0.46662024  0.22308839    -0.81600
O4485       O  0.53683342  0.42822962  0.28803706    -0.75900
O4486       O  0.61145310  0.42571340  0.33065316    -0.81700
O4487       O  0.64666191  0.36859994  0.22809874    -0.83400
O4488       O  0.54881216  0.40210113  0.17989629    -0.81700
C4489       C  0.55367559  0.42333138  0.30035641     0.86400
O4490       O  0.54970062  0.41672292  0.23369456    -0.88900
O4491       O  0.57066161  0.45798664  0.25376450    -0.89000
O4492       O  0.57332065  0.46571277  0.21759610    -0.76000
Mg4493     Mg  0.59648777  0.40164106  0.30290229     1.58000
O4494       O  0.59947150  0.46137698  0.32399139    -0.83400
H4495       H  0.57410279  0.35527337  0.25088768    -0.07100
O4496       O  0.59442657  0.41611090  0.20834499    -0.88700
H4497       H  0.61723307  0.44048937  0.19947199    -0.07000
H4498       H  0.52225529  0.39560419  0.23477103    -0.07100
C4499       C  0.61344603  0.42615506  0.21038101     0.86400
C4500       C  0.58418699  0.36927745  0.25725601     0.87000
C4501       C  0.53994554  0.39787060  0.23010788     0.87100
H4502       H  0.58291963  0.48775033  0.24257117    -0.07100
O4503       O  0.62070529  0.45057799  0.27750187    -0.76100
Mg4504     Mg  0.56090804  0.43232373  0.20038820     1.58000
H4505       H  0.64794951  0.42984305  0.27391744    -0.07100
C4506       C  0.64564101  0.36746451  0.20668030     0.92000
O4507       O  0.57798666  0.38001656  0.17078328    -0.83400
C4508       C  0.55880815  0.38893236  0.16602780     0.92100
O4509       O  0.62016522  0.37301135  0.31274704    -0.83300
Mg4510     Mg  0.58523268  0.46112924  0.28772183     1.58200
O4511       O  0.62770225  0.37323088  0.19574416    -0.81700
O4512       O  0.52782728  0.47958388  0.27115482    -0.83400
O4513       O  0.40317564  0.49553459  0.13085491    -0.89000
C4514       C  0.37119216  0.52703105  0.18463158     0.87100
Mg4515     Mg  0.41189416  0.46021795  0.13026789     1.58100
O4516       O  0.42807364  0.54431511  0.17974188    -0.88700
O4517       O  0.42055703  0.52881572  0.12822515    -0.76000
C4518       C  0.48834552  0.45779063  0.20767410     0.92100
O4519       O  0.37292200  0.47485964  0.17139329    -0.75800
O4520       O  0.47732829  0.44420518  0.19513968    -0.83300
Mg4521     Mg  0.37012180  0.50303740  0.14342176     1.58000
C4522       C  0.45942531  0.53799121  0.24375549     0.92000
O4523       O  0.36605760  0.53014850  0.11568785    -0.81600
H4524       H  0.45051236  0.56734822  0.16859783    -0.06900
C4525       C  0.42522321  0.48806548  0.22346466     0.87000
O4526       O  0.45053773  0.47225755  0.13411849    -0.76100
O4527       O  0.38365755  0.52678487  0.16720293    -0.88900
O4528       O  0.44852500  0.55038894  0.22980411    -0.81700
C4529       C  0.39208373  0.58732037  0.19899527     0.92200
C4530       C  0.37019806  0.55095130  0.11127295     0.92000
Mg4531     Mg  0.46662043  0.50490935  0.20110548     1.58000
O4532       O  0.47736638  0.47255655  0.21900037    -0.81600
O4533       O  0.46439938  0.53922645  0.18298786    -0.75900
O4534       O  0.39039377  0.58166382  0.17802964    -0.81700
O4535       O  0.35423364  0.47917035  0.12015703    -0.83400
O4536       O  0.45249339  0.42808002  0.15296757    -0.81700
C4537       C  0.44763723  0.55113422  0.17678808     0.86400
O4538       O  0.45285228  0.48425457  0.16966232    -0.88900
O4539       O  0.43075834  0.50395969  0.21088703    -0.89000
O4540       O  0.42830798  0.46749484  0.21733146    -0.76000
Mg4541     Mg  0.40514389  0.55412886  0.15387957     1.58000
O4542       O  0.40161198  0.57458264  0.21389792    -0.83400
H4543       H  0.42670119  0.50219442  0.10717654    -0.07100
O4544       O  0.40707078  0.45892152  0.16763568    -0.88700
H4545       H  0.38428756  0.44924007  0.19176162    -0.07000
H4546       H  0.47964353  0.48580524  0.14773590    -0.07100
C4547       C  0.38794472  0.46043702  0.17761298     0.86400
C4548       C  0.41683987  0.50857721  0.12134779     0.87000
C4549       C  0.46199024  0.48121475  0.15037199     0.87100
H4550       H  0.41830202  0.49165575  0.24013557    -0.07100
O4551       O  0.37994022  0.52795314  0.20417511    -0.76100
Mg4552     Mg  0.44073473  0.45031852  0.18368023     1.58000
H4553       H  0.35302191  0.52451682  0.18287646    -0.07100
C4554       C  0.35566273  0.45782847  0.11857187     0.92000
O4555       O  0.42288173  0.42317432  0.13004198    -0.83400
C4556       C  0.44159724  0.41627050  0.13836615     0.92100
O4557       O  0.38128379  0.56372820  0.12487485    -0.83300
Mg4558     Mg  0.41583175  0.53829359  0.21389625     1.58200
O4559       O  0.37378263  0.44715299  0.12423182    -0.81700
O4560       O  0.47202704  0.52195998  0.23626056    -0.83400
O4561       O  0.49228687  0.62248304  0.34852750    -0.89000
C4562       C  0.52770224  0.57112957  0.38057775     0.87100
Mg4563     Mg  0.45616113  0.62257269  0.34099568     1.58100
O4564       O  0.54300636  0.57689124  0.32306815    -0.88700
O4565       O  0.52586015  0.62736015  0.33198087    -0.76000
C4566       C  0.45722225  0.54203292  0.26864522     0.92100
O4567       O  0.47427034  0.58158291  0.37944603    -0.75800
O4568       O  0.44202657  0.55485914  0.27686985    -0.83300
Mg4569     Mg  0.50119690  0.61061286  0.38140938     1.58000
C4570       C  0.53505950  0.51380840  0.29015158     0.92000
O4571       O  0.52755798  0.63895474  0.38476342    -0.81600
H4572       H  0.56317860  0.59015633  0.29907599    -0.06900
C4573       C  0.48815868  0.53142752  0.32984502     0.87000
O4574       O  0.46648553  0.61924232  0.30228784    -0.76100
O4575       O  0.52595718  0.58802608  0.36765847    -0.88900
O4576       O  0.54807706  0.52538223  0.30299084    -0.81700
C4577       C  0.58698277  0.55759172  0.35689196     0.92200
C4578       C  0.54841424  0.64406479  0.38161128     0.92000
Mg4579     Mg  0.50124313  0.55507221  0.28791524     1.58000
O4580       O  0.47109278  0.53337677  0.28237637    -0.81600
O4581       O  0.53425731  0.57543076  0.28730920    -0.75900
O4582       O  0.58223782  0.57866976  0.35984068    -0.81700
O4583       O  0.47655620  0.63295329  0.39781181    -0.83400
O4584       O  0.42421687  0.59661302  0.30317351    -0.81700
C4585       C  0.54769698  0.58104460  0.30309492     0.86400
O4586       O  0.48015714  0.58455977  0.30231878    -0.88900
O4587       O  0.50283874  0.54500034  0.32331625    -0.89000
O4588       O  0.46706718  0.53579155  0.32732483    -0.76000
Mg4589     Mg  0.55293112  0.60248285  0.34634466     1.58000
O4590       O  0.57326073  0.54365812  0.34741201    -0.83400
H4591       H  0.49807534  0.64677263  0.32541672    -0.07100
O4592       O  0.45475078  0.58505807  0.34710400    -0.88700
H4593       H  0.44890609  0.55997715  0.37005746    -0.07000
H4594       H  0.47970758  0.60416166  0.27379582    -0.07100
C4595       C  0.45884548  0.57485387  0.36570646     0.86400
C4596       C  0.50504596  0.63285243  0.33518717     0.87000
C4597       C  0.47579741  0.60272405  0.29174350     0.87100
H4598       H  0.49328540  0.51539530  0.33723216    -0.07100
O4599       O  0.52898479  0.55151995  0.37217286    -0.76100
Mg4600     Mg  0.44753295  0.56772250  0.31405645     1.58000
H4601       H  0.52621993  0.57329768  0.39881132    -0.07100
C4602       C  0.45516505  0.63451523  0.39654683     0.92000
O4603       O  0.41857946  0.62194567  0.33085631    -0.83400
C4604       C  0.41243770  0.61222783  0.31252426     0.92100
O4605       O  0.56216048  0.63095661  0.37108628    -0.83300
Mg4606     Mg  0.53735770  0.54269330  0.33556294     1.58200
O4607       O  0.44424566  0.62872281  0.37871526    -0.81700
O4608       O  0.51877628  0.52298754  0.27949808    -0.83400
loop_ 
_geom_bond_atom_site_label_1 
_geom_bond_atom_site_label_2 
_geom_bond_distance 
_geom_bond_site_symmetry_2 
_ccdc_geom_bond_type 
O1           Mg3   2.283       .  S
O1           Mg9   2.271       .  S
O1           C36   1.264   1_455  A
C2           O15   1.264       .  A
C2           O39   1.278       .  A
C2           H41   1.082       .  S
Mg3          O32   2.177       .  S
Mg3          O47   2.274       .  S
Mg3          O43   2.263       .  S
Mg3          O14   2.273       .  S
O4          Mg46   2.217       .  S
O4          Mg29   2.239       .  S
O4           C25   1.270       .  A
O5           C36   1.276       .  A
O5          Mg29   2.358       .  S
C6            O8   1.280       .  A
C6           O20   1.270       .  A
C6         C1169   1.473       .  S
O7           C35   1.266       .  A
O7           Mg9   2.295       .  S
O8          Mg40   2.320       .  S
Mg9          O15   2.308   1_455  S
Mg9          O23   2.274       .  S
Mg9          O11   2.235   1_455  S
C10          O48   1.261       .  A
C10          O16   1.274       .  A
C10        C1244   1.456       .  S
O11          C18   1.262       .  A
H12          C25   1.082       .  S
C13          O28   1.274       .  A
C13          H38   1.081       .  S
C13          O27   1.241   1_455  S
O14          C37   1.258       .  A
O15         Mg29   2.270       .  S
O16         Mg46   2.338       .  S
C17          O30   1.267       .  A
C17          O22   1.276       .  A
C17        C1746   1.466       .  S
C18          O45   1.264       .  A
C18         C138   1.479       .  S
Mg19         O26   2.137       .  S
Mg19         O27   2.123   1_455  S
Mg19         O20   2.259       .  S
Mg19         O21   2.334   1_455  S
Mg19         O48   2.194   1_455  S
O21          C25   1.278       .  A
O22         Mg29   2.327       .  S
O23          C42   1.269       .  A
O24          C44   1.282       .  A
O24         Mg40   2.323       .  S
O26         Mg40   2.201       .  S
O26          C37   1.256       .  A
O27         Mg46   2.121       .  S
O28         Mg40   2.297       .  S
Mg29         O45   2.298       .  S
O30         Mg46   2.243       .  S
H31          C36   1.083       .  S
O32         Mg40   2.135       .  S
O32          C35   1.232       .  S
H33          C35   1.081       .  S
H34          C37   1.082       .  S
O39         Mg46   2.373       .  S
C42          O47   1.274       .  A
C42          C66   1.481   1_554  S
O43          C44   1.281       .  A
C44        C2226   1.466       .  S
O49         Mg51   2.159       .  S
O49         Mg57   2.165       .  S
O49          C84   1.235       .  S
C50          O63   1.266       .  A
C50          O87   1.280       .  A
C50          H89   1.082       .  S
Mg51         O80   2.163       .  S
Mg51         O95   2.251       .  S
Mg51         O91   2.208       .  S
Mg51         O62   2.266       .  S
O52         Mg94   2.211       .  S
O52         Mg77   2.227       .  S
O52          C73   1.269       .  A
O53          C84   1.274       .  A
O53         Mg77   2.332       .  S
C54          O56   1.278       .  A
C54          O68   1.272       .  A
C54        C1148   1.468       .  S
O55          C83   1.264       .  A
O55         Mg57   2.289       .  S
O56         Mg88   2.294       .  S
Mg57         O63   2.323       .  S
Mg57         O71   2.289       .  S
Mg57         O59   2.209       .  S
C58          O96   1.260       .  A
C58          O64   1.276       .  A
C58        C1073   1.461       .  S
O59          C66   1.261       .  A
H60          C73   1.082       .  S
C61          O76   1.276       .  A
C61          H86   1.081       .  S
C61          O75   1.242       .  S
O62          C85   1.259       .  A
O63         Mg77   2.279       .  S
O64         Mg94   2.357       .  S
C65          O78   1.270       .  A
C65          O70   1.272       .  A
C65        C2250   1.463       .  S
C66          O93   1.262       .  A
Mg67         O74   2.128       .  S
Mg67         O75   2.120       .  S
Mg67         O68   2.278       .  S
Mg67         O69   2.340       .  S
Mg67         O96   2.169       .  S
O69          C73   1.277       .  A
O70         Mg77   2.281       .  S
O71          C90   1.272       .  A
O72          C92   1.282       .  A
O72         Mg88   2.349       .  S
O74         Mg88   2.197       .  S
O74          C85   1.257       .  A
O75         Mg94   2.155       .  S
O76         Mg88   2.310       .  S
Mg77         O93   2.305       .  S
O78         Mg94   2.294       .  S
H79          C84   1.081       .  S
O80         Mg88   2.124       .  S
O80          C83   1.231       .  S
H81          C83   1.081       .  S
H82          C85   1.082       .  S
O87         Mg94   2.377       .  S
C90          O95   1.270       .  A
C90         C114   1.480   1_455  S
O91          C92   1.274       .  A
C92        C1914   1.463       .  S
O97         Mg99   2.252       .  S
O97        Mg105   2.252       .  S
O97         C132   1.264   1_554  A
C98         O111   1.263       .  A
C98         O135   1.277       .  A
C98         H137   1.082       .  S
Mg99        O128   2.180       .  S
Mg99        O143   2.274       .  S
Mg99        O139   2.201       .  S
Mg99        O110   2.268       .  S
O100       Mg142   2.230       .  S
O100       Mg125   2.251       .  S
O100        C121   1.272       .  A
O101        C132   1.275       .  A
O101       Mg125   2.358       .  S
C102        O104   1.281       .  A
C102        O116   1.274       .  A
C102       C2129   1.482       .  S
O103        C131   1.267       .  A
O103       Mg105   2.296       .  S
O104       Mg136   2.333       .  S
Mg105       O111   2.312   1_554  S
Mg105       O119   2.273       .  S
Mg105       O107   2.204   1_554  S
C106        O144   1.261       .  A
C106        O112   1.276       .  A
C106       C2081   1.464       .  S
O107        C114   1.257       .  A
H108        C121   1.082       .  S
C109        O124   1.275       .  A
C109        H134   1.081   1_554  S
C109        O123   1.241   1_554  S
O110        C133   1.257       .  A
O111       Mg125   2.277       .  S
O112       Mg142   2.357       .  S
C113        O126   1.270       .  A
C113        O118   1.279       .  A
C113       C1890   1.472       .  S
C114        O141   1.266       .  A
Mg115       O122   2.127       .  S
Mg115       O123   2.121   1_554  S
Mg115       O116   2.286       .  S
Mg115       O117   2.334   1_554  S
Mg115       O144   2.172   1_554  S
O117        C121   1.278       .  A
O118       Mg125   2.334       .  S
O119        C138   1.268       .  A
O120        C140   1.284       .  A
O120       Mg136   2.351       .  S
O122       Mg136   2.195       .  S
O122        C133   1.256       .  A
O123       Mg142   2.151       .  S
O124       Mg136   2.308       .  S
Mg125       O141   2.323       .  S
O126       Mg142   2.261       .  S
H127        C132   1.083       .  S
O128       Mg136   2.143       .  S
O128        C131   1.232       .  S
H129        C131   1.081       .  S
H130        C133   1.082       .  S
O135       Mg142   2.369       .  S
C138        O143   1.272       .  A
O139        C140   1.275       .  A
C140       C1770   1.460       .  S
O145       Mg147   2.180       .  S
O145       Mg153   2.175       .  S
O145        C180   1.237       .  S
C146        O159   1.262       .  A
C146        O183   1.275       .  A
C146        H185   1.083       .  S
Mg147       O176   2.173       .  S
Mg147       O191   2.262       .  S
Mg147       O187   2.273       .  S
Mg147       O158   2.269       .  S
O148       Mg190   2.243       .  S
O148       Mg173   2.239       .  S
O148        C169   1.271       .  A
O149        C180   1.276       .  A
O149       Mg173   2.344       .  S
C150        O152   1.276       .  A
C150        O164   1.274       .  A
C150       C1841   1.472       .  S
O151        C179   1.262       .  A
O151       Mg153   2.276       .  S
O152       Mg184   2.293       .  S
Mg153       O159   2.294       .  S
Mg153       O167   2.204       .  S
Mg153       O155   2.215       .  S
C154        O192   1.260       .  A
C154        O160   1.278       .  A
C154       C1745   1.462       .  S
O155        C162   1.258       .  A
H156        C169   1.082       .  S
C157        O172   1.278       .  A
C157        H182   1.081       .  S
C157        O171   1.243       .  S
O158        C181   1.257       .  A
O159       Mg173   2.261       .  S
O160       Mg190   2.365       .  S
C161        O174   1.274       .  A
C161        O166   1.273       .  A
C161       C1242   1.462       .  S
C162        O189   1.262       .  A
C162        C234   1.489   1_565  S
Mg163       O170   2.123       .  S
Mg163       O171   2.124       .  S
Mg163       O164   2.290       .  S
Mg163       O165   2.324       .  S
Mg163       O192   2.157       .  S
O165        C169   1.276       .  A
O166       Mg173   2.279       .  S
O167        C186   1.266       .  A
O168        C188   1.282       .  A
O168       Mg184   2.328       .  S
O170       Mg184   2.182       .  S
O170        C181   1.256       .  A
O171       Mg190   2.166       .  S
O172       Mg184   2.317       .  S
Mg173       O189   2.330       .  S
O174       Mg190   2.296       .  S
H175        C180   1.081       .  S
O176       Mg184   2.112       .  S
O176        C179   1.229       .  S
H177        C179   1.081       .  S
H178        C181   1.083       .  S
O183       Mg190   2.361       .  S
C186        O191   1.273       .  A
C186        C282   1.459   1_554  S
O187        C188   1.281       .  A
C188       C1458   1.471       .  S
O193       Mg195   2.207       .  S
O193       Mg201   2.191       .  S
O193        C228   1.235   1_554  S
C194        O207   1.267       .  A
C194        O231   1.282       .  A
C194        H233   1.082       .  S
Mg195       O224   2.167       .  S
Mg195       O239   2.263       .  S
Mg195       O235   2.291       .  S
Mg195       O206   2.271       .  S
O196       Mg238   2.212       .  S
O196       Mg221   2.229       .  S
O196        C217   1.269       .  A
O197        C228   1.274       .  A
O197       Mg221   2.330       .  S
C198        O200   1.278       .  A
C198        O212   1.272       .  A
C198       C2897   1.474       .  S
O199        C227   1.263       .  A
O199       Mg201   2.290       .  S
O200       Mg232   2.309       .  S
Mg201       O207   2.338   1_554  S
Mg201       O215   2.305       .  S
Mg201       O203   2.268   1_554  S
C202        O240   1.261       .  A
C202        O208   1.278       .  A
C202       C2972   1.461       .  S
O203        C210   1.270       .  A
H204        C217   1.082       .  S
C205        O220   1.276       .  A
C205        H230   1.081   1_554  S
C205        O219   1.242   1_554  S
O206        C229   1.260       .  A
O207       Mg221   2.275       .  S
O208       Mg238   2.369       .  S
C209        O222   1.271       .  A
C209        O214   1.271       .  A
C209        C810   1.472       .  S
C210        O237   1.261       .  A
C210        C258   1.488       .  S
Mg211       O218   2.141   1_556  S
Mg211       O219   2.126       .  S
Mg211       O212   2.280   1_556  S
Mg211       O213   2.339       .  S
Mg211       O240   2.183       .  S
O213        C217   1.277       .  A
O214       Mg221   2.290       .  S
O215        C234   1.275       .  A
O216        C236   1.281       .  A
O216       Mg232   2.331       .  S
O218       Mg232   2.194       .  S
O218        C229   1.258       .  A
O219       Mg238   2.145       .  S
O220       Mg232   2.308       .  S
Mg221       O237   2.266       .  S
O222       Mg238   2.309       .  S
H223        C228   1.081       .  S
O224       Mg232   2.132       .  S
O224        C227   1.229       .  S
H225        C227   1.081       .  S
H226        C229   1.082       .  S
O231       Mg238   2.386       .  S
C234        O239   1.274       .  A
O235        C236   1.283       .  A
C236       C1218   1.476       .  S
O241       Mg243   2.153       .  S
O241       Mg249   2.172       .  S
O241        C276   1.234   1_565  S
C242        O255   1.265       .  A
C242        O279   1.278       .  A
C242        H281   1.082       .  S
Mg243       O272   2.146       .  S
Mg243       O287   2.262       .  S
Mg243       O283   2.229       .  S
Mg243       O254   2.253       .  S
O244       Mg286   2.205       .  S
O244       Mg269   2.255       .  S
O244        C265   1.271       .  A
O245        C276   1.271       .  A
O245       Mg269   2.321       .  S
C246        O248   1.275       .  A
C246        O260   1.277       .  A
C246       C1628   1.465       .  S
O247        C275   1.261       .  A
O247       Mg249   2.276       .  S
O248       Mg280   2.264       .  S
Mg249       O255   2.290   1_565  S
Mg249       O263   2.212       .  S
Mg249       O251   2.227   1_565  S
C250        O288   1.266       .  A
C250        O256   1.275       .  A
C250       C1724   1.470       .  S
O251        C258   1.260       .  A
H252        C265   1.082       .  S
C253        O268   1.273       .  A
C253        H278   1.081   1_565  S
C253        O267   1.240   1_565  S
O254        C277   1.260       .  A
O255       Mg269   2.263       .  S
O256       Mg286   2.353       .  S
C257        O270   1.269       .  A
C257        O262   1.271       .  A
C257        C786   1.461       .  S
C258        O285   1.266       .  A
Mg259       O266   2.077       .  S
Mg259       O267   2.114   1_565  S
Mg259       O260   2.301       .  S
Mg259       O261   2.358   1_565  S
Mg259       O288   2.224   1_565  S
O261        C265   1.281       .  A
O262       Mg269   2.293       .  S
O263        C282   1.268       .  A
O264        C284   1.280       .  A
O264       Mg280   2.344       .  S
O266       Mg280   2.135       .  S
O266        C277   1.231       .  S
O267       Mg286   2.143       .  S
O268       Mg280   2.302       .  S
Mg269       O285   2.306       .  S
O270       Mg286   2.257       .  S
H271        C276   1.081       .  S
O272       Mg280   2.118       .  S
O272        C275   1.229       .  S
H273        C275   1.081       .  S
H274        C277   1.081       .  S
O279       Mg286   2.370       .  S
C282        O287   1.272       .  A
O283        C284   1.276       .  A
C284       C1482   1.467       .  S
O289       Mg291   2.173       .  S
O289       Mg297   2.180       .  S
O289        C324   1.234       .  S
C290        O303   1.265       .  A
C290        O327   1.278       .  A
C290        H329   1.082       .  S
Mg291       O320   2.161       .  S
Mg291       O335   2.265       .  S
Mg291       O331   2.271       .  S
Mg291       O302   2.268       .  S
O292       Mg334   2.202       .  S
O292       Mg317   2.250       .  S
O292        C313   1.269       .  A
O293        C324   1.271       .  A
O293       Mg317   2.322       .  S
C294        O296   1.276       .  A
C294        O308   1.277       .  A
C294       C1340   1.472       .  S
O295        C323   1.262       .  A
O295       Mg297   2.276       .  S
O296       Mg328   2.280       .  S
Mg297       O303   2.289       .  S
Mg297       O311   2.213       .  S
Mg297       O299   2.244       .  S
C298        O336   1.263       .  A
C298        O304   1.274       .  A
C298       C1436   1.462       .  S
O299        C306   1.263       .  A
H300        C313   1.082       .  S
C301        O316   1.276       .  A
C301        H326   1.081       .  S
C301        O315   1.242       .  S
O302        C325   1.260       .  A
O303       Mg317   2.261       .  S
O304       Mg334   2.353       .  S
C305        O318   1.268       .  A
C305        O310   1.270       .  A
C305       C1602   1.463       .  S
C306        O333   1.265       .  A
C306        C354   1.486       .  S
Mg307       O314   2.136       .  S
Mg307       O315   2.118       .  S
Mg307       O308   2.314       .  S
Mg307       O309   2.359       .  S
Mg307       O336   2.198       .  S
O309        C313   1.280       .  A
O310       Mg317   2.293       .  S
O311        C330   1.268       .  A
O312        C332   1.281       .  A
O312       Mg328   2.325       .  S
O314       Mg328   2.189       .  S
O314        C325   1.258       .  A
O315       Mg334   2.148       .  S
O316       Mg328   2.310       .  S
Mg317       O333   2.294       .  S
O318       Mg334   2.258       .  S
H319        C324   1.081       .  S
O320       Mg328   2.115       .  S
O320        C323   1.230       .  S
H321        C323   1.081       .  S
H322        C325   1.082       .  S
O327       Mg334   2.369       .  S
C330        O335   1.274       .  A
C330        C426   1.461       .  S
O331        C332   1.280       .  A
C332        C642   1.469       .  S
O337       Mg339   2.173       .  S
O337       Mg345   2.178       .  S
O337        C372   1.234       .  S
C338        O351   1.268       .  A
C338        O375   1.282       .  A
C338        H377   1.082       .  S
Mg339       O368   2.156       .  S
Mg339       O383   2.255       .  S
Mg339       O379   2.229       .  S
Mg339       O350   2.267       .  S
O340       Mg382   2.207       .  S
O340       Mg365   2.241       .  S
O340        C361   1.270       .  A
O341        C372   1.272       .  A
O341       Mg365   2.321       .  S
C342        O344   1.277       .  A
C342        O356   1.277       .  A
C342       C1580   1.467       .  S
O343        C371   1.263       .  A
O343       Mg345   2.288       .  S
O344       Mg376   2.278       .  S
Mg345       O351   2.327       .  S
Mg345       O359   2.302       .  S
Mg345       O347   2.255       .  S
C346        O384   1.265       .  A
C346        O352   1.278       .  A
C346       C1484   1.468       .  S
O347        C354   1.268       .  A
H348        C361   1.082       .  S
C349        O364   1.274       .  A
C349        H374   1.081       .  S
C349        O363   1.241       .  S
O350        C373   1.261       .  A
O351       Mg365   2.270       .  S
O352       Mg382   2.366       .  S
C353        O366   1.270       .  A
C353        O358   1.269       .  A
C353       C1626   1.469       .  S
C354        O381   1.263       .  A
Mg355       O362   2.151       .  S
Mg355       O363   2.123       .  S
Mg355       O356   2.303       .  S
Mg355       O357   2.351       .  S
Mg355       O384   2.211       .  S
O357        C361   1.279       .  A
O358       Mg365   2.278       .  S
O359        C378   1.275       .  A
O360        C380   1.280       .  A
O360       Mg376   2.347       .  S
O362       Mg376   2.207       .  S
O362        C373   1.260       .  A
O363       Mg382   2.143       .  S
O364       Mg376   2.304       .  S
Mg365       O381   2.273       .  S
O366       Mg382   2.308       .  S
H367        C372   1.081       .  S
O368       Mg376   2.124       .  S
O368        C371   1.229       .  S
H369        C371   1.081       .  S
H370        C373   1.082       .  S
O375       Mg382   2.386       .  S
C378        O383   1.271       .  A
C378        C402   1.483       .  S
O379        C380   1.276       .  A
C380       C2106   1.468       .  S
O385       Mg387   2.150       .  S
O385       Mg393   2.164       .  S
O385        C420   1.235       .  S
C386        O399   1.264       .  A
C386        O423   1.277       .  A
C386        H425   1.082       .  S
Mg387       O416   2.171       .  S
Mg387       O431   2.268       .  S
Mg387       O427   2.210       .  S
Mg387       O398   2.264       .  S
O388       Mg430   2.201       .  S
O388       Mg413   2.237       .  S
O388        C409   1.270       .  A
O389        C420   1.273       .  A
O389       Mg413   2.332       .  S
C390        O392   1.280       .  A
C390        O404   1.273       .  A
C390       C2012   1.470       .  S
O391        C419   1.262       .  A
O391       Mg393   2.279       .  S
O392       Mg424   2.304       .  S
Mg393       O399   2.287       .  S
Mg393       O407   2.213       .  S
Mg393       O395   2.209       .  S
C394        O432   1.258       .  A
C394        O400   1.272       .  A
C394       C1889   1.461       .  S
O395        C402   1.257       .  A
H396        C409   1.082       .  S
C397        O412   1.275       .  A
C397        H422   1.081       .  S
C397        O411   1.241       .  S
O398        C421   1.257       .  A
O399       Mg413   2.263       .  S
O400       Mg430   2.352       .  S
C401        O414   1.268       .  A
C401        O406   1.274       .  A
C401       C2082   1.461       .  S
C402        O429   1.265       .  A
Mg403       O410   2.129       .  S
Mg403       O411   2.111       .  S
Mg403       O404   2.283       .  S
Mg403       O405   2.352       .  S
Mg403       O432   2.175       .  S
O405        C409   1.279       .  A
O406       Mg413   2.302       .  S
O407        C426   1.267       .  A
O408        C428   1.283       .  A
O408       Mg424   2.348       .  S
O410       Mg424   2.198       .  S
O410        C421   1.256       .  A
O411       Mg430   2.160       .  S
O412       Mg424   2.310       .  S
Mg413       O429   2.323       .  S
O414       Mg430   2.253       .  S
H415        C420   1.081       .  S
O416       Mg424   2.129       .  S
O416        C419   1.230       .  S
H417        C419   1.081       .  S
H418        C421   1.082       .  S
O423       Mg430   2.366       .  S
C426        O431   1.272       .  A
O427        C428   1.274       .  A
C428        C666   1.462       .  S
O433       Mg435   2.140       .  S
O433       Mg441   2.167       .  S
O433        C468   1.234       .  S
C434        O447   1.263       .  A
C434        O471   1.276       .  A
C434        H473   1.082       .  S
Mg435       O464   2.151       .  S
Mg435       O479   2.263       .  S
Mg435       O475   2.213       .  S
Mg435       O446   2.254       .  S
O436       Mg478   2.205       .  S
O436       Mg461   2.249       .  S
O436        C457   1.273       .  A
O437        C468   1.272       .  A
O437       Mg461   2.332       .  S
C438        O440   1.277       .  A
C438        O452   1.277       .  A
C438        C812   1.466       .  S
O439        C467   1.261       .  A
O439       Mg441   2.272       .  S
O440       Mg472   2.276       .  S
Mg441       O447   2.284       .  S
Mg441       O455   2.203       .  S
Mg441       O443   2.196       .  S
C442        O480   1.265       .  A
C442        O448   1.270       .  A
C442        C764   1.464       .  S
O443        C450   1.255       .  A
H444        C457   1.082       .  S
C445        O460   1.274       .  A
C445        H470   1.081       .  S
C445        O459   1.240       .  S
O446        C469   1.259       .  A
O447       Mg461   2.263       .  S
O448       Mg478   2.327       .  S
C449        O462   1.268       .  A
C449        O454   1.275       .  A
C449       C1314   1.461       .  S
C450        O477   1.266       .  A
C450        C570   1.489   1_545  S
Mg451       O458   2.075       .  S
Mg451       O459   2.109       .  S
Mg451       O452   2.300       .  S
Mg451       O453   2.358       .  S
Mg451       O480   2.226       .  S
O453        C457   1.282       .  A
O454       Mg461   2.306       .  S
O455        C474   1.266       .  A
O456        C476   1.283       .  A
O456       Mg472   2.360       .  S
O458       Mg472   2.132       .  S
O458        C469   1.229       .  S
O459       Mg478   2.153       .  S
O460       Mg472   2.306       .  S
Mg461       O477   2.342       .  S
O462       Mg478   2.249       .  S
H463        C468   1.081       .  S
O464       Mg472   2.117       .  S
O464        C467   1.229       .  S
H465        C467   1.081       .  S
H466        C469   1.081       .  S
O471       Mg478   2.361       .  S
C474        O479   1.272       .  A
C474        C522   1.453   1_655  S
O475        C476   1.274       .  A
C476       C2970   1.468       .  S
O481       Mg483   2.163       .  S
O481       Mg489   2.174   1_545  S
O481        C516   1.235   1_545  S
C482        O495   1.264       .  A
C482        O519   1.277       .  A
C482        H521   1.082       .  S
Mg483       O512   2.159       .  S
Mg483       O527   2.261       .  S
Mg483       O523   2.262       .  S
Mg483       O494   2.269       .  S
O484       Mg526   2.211       .  S
O484       Mg509   2.255       .  S
O484        C505   1.269       .  A
O485        C516   1.272       .  A
O485       Mg509   2.325       .  S
C486        O488   1.275       .  A
C486        O500   1.276       .  A
C486       C2204   1.468       .  S
O487        C515   1.261       .  A
O487       Mg489   2.272   1_545  S
O488       Mg520   2.273       .  S
Mg489       O495   2.291       .  S
Mg489       O503   2.209   1_565  S
Mg489       O491   2.218       .  S
C490        O528   1.264       .  A
C490        O496   1.275       .  A
C490       C2252   1.464       .  S
O491        C498   1.260       .  A
H492        C505   1.082       .  S
C493        O508   1.276       .  A
C493        H518   1.081   1_545  S
C493        O507   1.242   1_545  S
O494        C517   1.260       .  A
O495       Mg509   2.264       .  S
O496       Mg526   2.350       .  S
C497        O510   1.268       .  A
C497        O502   1.272       .  A
C497       C1074   1.463       .  S
C498        O525   1.266       .  A
C498        C546   1.491       .  S
Mg499       O506   2.138   1_565  S
Mg499       O507   2.122       .  S
Mg499       O500   2.303   1_565  S
Mg499       O501   2.357       .  S
Mg499       O528   2.209       .  S
O501        C505   1.280       .  A
O502       Mg509   2.298       .  S
O503        C522   1.267       .  A
O504        C524   1.280       .  A
O504       Mg520   2.319       .  S
O506       Mg520   2.195       .  S
O506        C517   1.258       .  A
O507       Mg526   2.144       .  S
O508       Mg520   2.309       .  S
Mg509       O525   2.313       .  S
O510       Mg526   2.258       .  S
H511        C516   1.081       .  S
O512       Mg520   2.107       .  S
O512        C515   1.229       .  S
H513        C515   1.081       .  S
H514        C517   1.082       .  S
O519       Mg526   2.367       .  S
C522        O527   1.273       .  A
O523        C524   1.278       .  A
C524       C2946   1.467       .  S
O529       Mg531   2.195       .  S
O529       Mg537   2.182       .  S
O529        C564   1.235   1_655  S
C530        O543   1.266       .  A
C530        O567   1.281       .  A
C530        H569   1.082       .  S
Mg531       O560   2.165       .  S
Mg531       O575   2.242       .  S
Mg531       O571   2.242       .  S
Mg531       O542   2.263       .  S
O532       Mg574   2.223       .  S
O532       Mg557   2.238       .  S
O532        C553   1.269       .  A
O533        C564   1.273       .  A
O533       Mg557   2.326       .  S
C534        O536   1.280       .  A
C534        O548   1.270       .  A
C534        C641   1.473       .  S
O535        C563   1.264       .  A
O535       Mg537   2.291       .  S
O536       Mg568   2.315       .  S
Mg537       O543   2.338   1_655  S
Mg537       O551   2.323       .  S
Mg537       O539   2.264   1_655  S
C538        O576   1.258       .  A
C538        O544   1.279       .  A
C538        C689   1.464       .  S
O539        C546   1.271       .  A
H540        C553   1.082       .  S
C541        O556   1.275       .  A
C541        H566   1.081       .  S
C541        O555   1.241   1_655  S
O542        C565   1.259       .  A
O543       Mg557   2.280       .  S
O544       Mg574   2.377       .  S
C545        O558   1.271       .  A
C545        O550   1.271       .  A
C545       C1098   1.469       .  S
C546        O573   1.262       .  A
Mg547       O554   2.126       .  S
Mg547       O555   2.125   1_655  S
Mg547       O548   2.265       .  S
Mg547       O549   2.336   1_655  S
Mg547       O576   2.152   1_655  S
O549        C553   1.277       .  A
O550       Mg557   2.284       .  S
O551        C570   1.277       .  A
O552        C572   1.282       .  A
O552       Mg568   2.353       .  S
O554       Mg568   2.198       .  S
O554        C565   1.258       .  A
O555       Mg574   2.151       .  S
O556       Mg568   2.309       .  S
Mg557       O573   2.271       .  S
O558       Mg574   2.303       .  S
H559        C564   1.081       .  S
O560       Mg568   2.130       .  S
O560        C563   1.229       .  S
H561        C563   1.081       .  S
H562        C565   1.082       .  S
O567       Mg574   2.386       .  S
C570        O575   1.269       .  A
O571        C572   1.278       .  A
C572       C1338   1.471       .  S
O577       Mg579   2.149       .  S
O577       Mg585   2.122   1_455  S
O577        C612   1.240   1_455  S
C578        O591   1.260       .  A
C578        O615   1.262       .  A
C578        H617   1.082       .  S
Mg579       O608   2.199       .  S
Mg579       O623   2.369       .  S
Mg579       O619   2.321       .  S
Mg579       O590   2.387       .  S
O580       Mg622   2.162       .  S
O580       Mg605   2.138       .  S
O580        C601   1.230       .  S
O581        C612   1.274       .  A
O581       Mg605   2.305       .  S
C582        O584   1.263       .  A
C582        O596   1.267       .  A
C582        C678   1.483       .  S
O583        C611   1.279       .  A
O583       Mg585   2.354   1_455  S
O584       Mg616   2.268       .  S
Mg585       O591   2.151       .  S
Mg585       O599   2.192   1_655  S
Mg585       O587   2.307       .  S
C586        O624   1.273       .  A
C586        O592   1.273       .  A
C586        C630   1.482       .  S
O587        C594   1.277       .  A
H588        C601   1.081       .  S
C589        O604   1.271       .  A
C589        H614   1.081       .  S
C589        O603   1.234   1_455  S
O590        C613   1.283       .  A
O591       Mg605   2.205       .  S
O592       Mg622   2.269       .  S
C593        O606   1.274       .  A
C593        O598   1.282       .  A
C593        C922   1.466       .  S
C594        O621   1.281       .  A
C594       C3377   1.476       .  S
Mg595       O602   2.314   1_655  S
Mg595       O603   2.174       .  S
Mg595       O596   2.261   1_655  S
Mg595       O597   2.290       .  S
Mg595       O624   2.291       .  S
O597        C601   1.263       .  A
O598       Mg605   2.351       .  S
O599        C618   1.263       .  A
O600        C620   1.266       .  A
O600       Mg616   2.267       .  S
O602       Mg616   2.261       .  S
O602        C613   1.268       .  A
O603       Mg622   2.165       .  S
O604       Mg616   2.317       .  S
Mg605       O621   2.303       .  S
O606       Mg622   2.220       .  S
H607        C612   1.081       .  S
O608       Mg616   2.240       .  S
O608        C611   1.269       .  A
H609        C611   1.082       .  S
H610        C613   1.082       .  S
O615       Mg622   2.269       .  S
C618        O623   1.278       .  A
C618       C3425   1.463       .  S
O619        C620   1.271       .  A
C620       C3274   1.471       .  S
O625       Mg627   2.155       .  S
O625       Mg633   2.121       .  S
O625        C660   1.241       .  S
C626        O663   1.258       .  A
C626        H665   1.081       .  S
C626        O639   1.228       .  S
Mg627       O656   2.223       .  S
Mg627       O671   2.344       .  S
Mg627       O667   2.253       .  S
Mg627       O638   2.365       .  S
O628       Mg670   2.168       .  S
O628       Mg653   2.130       .  S
O628        C649   1.230       .  S
O629        C660   1.274       .  A
O629       Mg653   2.303       .  S
C630        O632   1.263       .  A
C630        O644   1.259       .  A
O631        C659   1.277       .  A
O631       Mg633   2.326       .  S
O632       Mg664   2.312       .  S
Mg633       O639   2.058       .  S
Mg633       O647   2.170       .  S
Mg633       O635   2.264       .  S
C634        O672   1.267       .  A
C634        O640   1.276       .  A
C634        C682   1.468   1_655  S
O635        C642   1.271       .  A
H636        C649   1.081       .  S
C637        O652   1.276       .  A
C637        H662   1.081       .  S
C637        O651   1.236       .  S
O638        C661   1.275       .  A
O639       Mg653   2.118       .  S
O640       Mg670   2.277       .  S
C641        O654   1.283       .  A
C641        O646   1.280       .  A
C642        O669   1.277       .  A
Mg643       O650   2.300       .  S
Mg643       O651   2.176       .  S
Mg643       O644   2.226       .  S
Mg643       O645   2.280       .  S
Mg643       O672   2.215       .  S
O645        C649   1.262       .  A
O646       Mg653   2.319       .  S
O647        C666   1.260       .  A
O648        C668   1.277       .  A
O648       Mg664   2.319       .  S
O650       Mg664   2.264       .  S
O650        C661   1.262       .  A
O651       Mg670   2.187       .  S
O652       Mg664   2.347       .  S
Mg653       O669   2.304       .  S
O654       Mg670   2.291       .  S
H655        C660   1.081       .  S
O656       Mg664   2.228       .  S
O656        C659   1.271       .  A
H657        C659   1.082       .  S
H658        C661   1.083       .  S
O663       Mg670   2.253       .  S
C666        O671   1.273       .  A
O667        C668   1.269       .  A
C668        C918   1.465       .  S
O673       Mg675   2.154       .  S
O673       Mg681   2.125       .  S
O673        C708   1.242       .  S
C674        O687   1.256       .  A
C674        O711   1.257       .  A
C674        H713   1.082       .  S
Mg675       O704   2.215       .  S
Mg675       O719   2.368       .  S
Mg675       O715   2.275       .  S
Mg675       O686   2.371       .  S
O676       Mg718   2.172       .  S
O676       Mg701   2.128       .  S
O676        C697   1.230       .  S
O677        C708   1.276       .  A
O677       Mg701   2.312       .  S
C678        O680   1.264       .  A
C678        O692   1.263       .  A
O679        C707   1.276       .  A
O679       Mg681   2.337       .  S
O680       Mg712   2.287       .  S
Mg681       O687   2.118       .  S
Mg681       O695   2.151       .  S
Mg681       O683   2.267       .  S
C682        O720   1.269       .  A
C682        O688   1.272       .  A
O683        C690   1.271       .  A
H684        C697   1.081       .  S
C685        O700   1.272       .  A
C685        H710   1.081       .  S
C685        O699   1.234       .  S
O686        C709   1.278       .  A
O687       Mg701   2.192       .  S
O688       Mg718   2.248       .  S
C689        O702   1.278       .  A
C689        O694   1.280       .  A
C690        O717   1.278       .  A
C690       C2828   1.470       .  S
Mg691       O698   2.294       .  S
Mg691       O699   2.176       .  S
Mg691       O692   2.251       .  S
Mg691       O693   2.285       .  S
Mg691       O720   2.232       .  S
O693        C697   1.264       .  A
O694       Mg701   2.336       .  S
O695        C714   1.258       .  A
O696        C716   1.271       .  A
O696       Mg712   2.292       .  S
O698       Mg712   2.259       .  S
O698        C709   1.264       .  A
O699       Mg718   2.174       .  S
O700       Mg712   2.326       .  S
Mg701       O717   2.303       .  S
O702       Mg718   2.236       .  S
H703        C708   1.081       .  S
O704       Mg712   2.239       .  S
O704        C707   1.268       .  A
H705        C707   1.082       .  S
H706        C709   1.082       .  S
O711       Mg718   2.263       .  S
C714        O719   1.277       .  A
C714       C2780   1.462       .  S
O715        C716   1.271       .  A
C716       C3270   1.466       .  S
O721       Mg723   2.124       .  S
O721       Mg729   2.125       .  S
O721        C756   1.242       .  S
C722        O735   1.258       .  A
C722        O759   1.260       .  A
C722        H761   1.082       .  S
Mg723       O752   2.215       .  S
Mg723       O767   2.381       .  S
Mg723       O763   2.297       .  S
Mg723       O734   2.392       .  S
O724       Mg766   2.173       .  S
O724       Mg749   2.139       .  S
O724        C745   1.231       .  S
O725        C756   1.275       .  A
O725       Mg749   2.301       .  S
C726        O728   1.263       .  A
C726        O740   1.269       .  A
C726        C774   1.485       .  S
O727        C755   1.277       .  A
O727       Mg729   2.344       .  S
O728       Mg760   2.265       .  S
Mg729       O735   2.144       .  S
Mg729       O743   2.190       .  S
Mg729       O731   2.263       .  S
C730        O768   1.274       .  A
C730        O736   1.275       .  A
C730        C822   1.485       .  S
O731        C738   1.270       .  A
H732        C745   1.081       .  S
C733        O747   1.262       .  A
C733        O748   1.271       .  A
C733        H758   1.083       .  S
O734        C757   1.283       .  A
O735       Mg749   2.205       .  S
O736       Mg766   2.285       .  S
C737        O750   1.280       .  A
C737        O742   1.281       .  A
C737        C966   1.465       .  S
C738        O765   1.279       .  A
C738       C3548   1.475       .  S
Mg739       O746   2.310       .  S
Mg739       O747   2.273       .  S
Mg739       O740   2.268       .  S
Mg739       O741   2.293       .  S
Mg739       O768   2.295       .  S
O741        C745   1.265       .  A
O742       Mg749   2.320       .  S
O743        C762   1.262       .  A
O744        C764   1.265       .  A
O744       Mg760   2.267       .  S
O746       Mg760   2.270       .  S
O746        C757   1.268       .  A
O747       Mg766   2.276       .  S
O748       Mg760   2.335       .  S
Mg749       O765   2.321       .  S
O750       Mg766   2.262       .  S
H751        C756   1.081       .  S
O752       Mg760   2.249       .  S
O752        C755   1.267       .  A
H753        C755   1.082       .  S
H754        C757   1.082       .  S
O759       Mg766   2.272       .  S
C762        O767   1.281       .  A
C762       C3569   1.464       .  S
O763        C764   1.269       .  A
O769       Mg771   2.140       .  S
O769       Mg777   2.123       .  S
O769        C804   1.242       .  S
C770        O783   1.258       .  A
C770        O807   1.260       .  A
C770        H809   1.082       .  S
Mg771       O800   2.207       .  S
Mg771       O815   2.375       .  S
Mg771       O811   2.271       .  S
Mg771       O782   2.378       .  S
O772       Mg814   2.154       .  S
O772       Mg797   2.107       .  S
O772        C793   1.230       .  S
O773        C804   1.276       .  A
O773       Mg797   2.308       .  S
C774        O776   1.266       .  A
C774        O788   1.262       .  A
O775        C803   1.280       .  A
O775       Mg777   2.353       .  S
O776       Mg808   2.298       .  S
Mg777       O783   2.145       .  S
Mg777       O791   2.216       .  S
Mg777       O779   2.297       .  S
C778        O816   1.269       .  A
C778        O784   1.270       .  A
C778        C826   1.463       .  S
O779        C786   1.277       .  A
H780        C793   1.081       .  S
C781        O796   1.272       .  A
C781        H806   1.081       .  S
C781        O795   1.234       .  S
O782        C805   1.280       .  A
O783       Mg797   2.203       .  S
O784       Mg814   2.243       .  S
C785        O798   1.276       .  A
C785        O790   1.280       .  A
C785       C4234   1.465       .  S
C786        O813   1.274       .  A
Mg787       O794   2.300       .  S
Mg787       O795   2.169       .  S
Mg787       O788   2.247       .  S
Mg787       O789   2.280       .  S
Mg787       O816   2.235       .  S
O789        C793   1.262       .  A
O790       Mg797   2.340       .  S
O791        C810   1.265       .  A
O792        C812   1.272       .  A
O792       Mg808   2.297       .  S
O794       Mg808   2.254       .  S
O794        C805   1.266       .  A
O795       Mg814   2.163       .  S
O796       Mg808   2.323       .  S
Mg797       O813   2.257       .  S
O798       Mg814   2.229       .  S
H799        C804   1.081       .  S
O800       Mg808   2.255       .  S
O800        C803   1.270       .  A
H801        C803   1.082       .  S
H802        C805   1.082       .  S
O807       Mg814   2.264       .  S
C810        O815   1.279       .  A
O811        C812   1.270       .  A
O817       Mg819   2.162       .  S
O817       Mg825   2.119       .  S
O817        C852   1.241       .  S
C818        O855   1.259       .  A
C818        H857   1.081       .  S
C818        O831   1.229       .  S
Mg819       O848   2.204       .  S
Mg819       O863   2.339       .  S
Mg819       O859   2.297       .  S
Mg819       O830   2.370       .  S
O820       Mg862   2.157       .  S
O820       Mg845   2.125       .  S
O820        C841   1.229       .  S
O821        C852   1.275       .  A
O821       Mg845   2.306       .  S
C822        O824   1.262       .  A
C822        O836   1.261       .  A
O823        C851   1.279       .  A
O823       Mg825   2.347       .  S
O824       Mg856   2.304       .  S
Mg825       O831   2.080       .  S
Mg825       O839   2.206       .  S
Mg825       O827   2.293       .  S
C826        O864   1.267       .  A
C826        O832   1.277       .  A
O827        C834   1.275       .  A
H828        C841   1.081       .  S
C829        O844   1.273       .  A
C829        H854   1.081       .  S
C829        O843   1.235       .  S
O830        C853   1.278       .  A
O831       Mg845   2.126       .  S
O832       Mg862   2.290       .  S
C833        O846   1.283       .  A
C833        O838   1.281       .  A
C833       C4230   1.477       .  S
C834        O861   1.276       .  A
C834       C3713   1.469       .  S
Mg835       O842   2.288       .  S
Mg835       O843   2.182       .  S
Mg835       O836   2.233       .  S
Mg835       O837   2.275       .  S
Mg835       O864   2.203       .  S
O837        C841   1.261       .  A
O838       Mg845   2.334       .  S
O839        C858   1.263       .  A
O840        C860   1.270       .  A
O840       Mg856   2.273       .  S
O842       Mg856   2.260       .  S
O842        C853   1.265       .  A
O843       Mg862   2.176       .  S
O844       Mg856   2.333       .  S
Mg845       O861   2.282       .  S
O846       Mg862   2.290       .  S
H847        C852   1.081       .  S
O848       Mg856   2.221       .  S
O848        C851   1.270       .  A
H849        C851   1.082       .  S
H850        C853   1.083       .  S
O855       Mg862   2.259       .  S
C858        O863   1.273       .  A
C858       C3665   1.461       .  S
O859        C860   1.271       .  A
C860        C970   1.462       .  S
O865       Mg867   2.194       .  S
O865       Mg873   2.180       .  S
O865        C900   1.235       .  S
C866        O879   1.267       .  A
C866        O903   1.282       .  A
C866        H905   1.082       .  S
Mg867       O896   2.171       .  S
Mg867       O911   2.267       .  S
Mg867       O907   2.277       .  S
Mg867       O878   2.271       .  S
O868       Mg910   2.218       .  S
O868       Mg893   2.233       .  S
O868        C889   1.267       .  A
O869        C900   1.274       .  A
O869       Mg893   2.329       .  S
C870        O872   1.278       .  A
C870        O884   1.271       .  A
C870       C4481   1.477       .  S
O871        C899   1.263       .  A
O871       Mg873   2.288       .  S
O872       Mg904   2.320       .  S
Mg873       O879   2.337       .  S
Mg873       O887   2.303       .  S
Mg873       O875   2.253       .  S
C874        O912   1.259       .  A
C874        O880   1.280       .  A
C874       C4577   1.468       .  S
O875        C882   1.268       .  A
H876        C889   1.082       .  S
C877        O892   1.276       .  A
C877        H902   1.081       .  S
C877        O891   1.242       .  S
O878        C901   1.260       .  A
O879       Mg893   2.275       .  S
O880       Mg910   2.394       .  S
C881        O894   1.272       .  A
C881        O886   1.270       .  A
C881       C1818   1.468       .  S
C882        O909   1.262       .  A
C882        C930   1.487       .  S
Mg883       O890   2.135       .  S
Mg883       O891   2.122       .  S
Mg883       O884   2.274       .  S
Mg883       O885   2.336       .  S
Mg883       O912   2.152       .  S
O885        C889   1.275       .  A
O886       Mg893   2.283       .  S
O887        C906   1.275       .  A
O888        C908   1.280       .  A
O888       Mg904   2.321       .  S
O890       Mg904   2.198       .  S
O890        C901   1.258       .  A
O891       Mg910   2.149       .  S
O892       Mg904   2.309       .  S
Mg893       O909   2.271       .  S
O894       Mg910   2.304       .  S
H895        C900   1.081       .  S
O896       Mg904   2.133       .  S
O896        C899   1.229       .  S
H897        C899   1.081       .  S
H898        C901   1.082       .  S
O903       Mg910   2.387       .  S
C906        O911   1.273       .  A
C906        C978   1.484       .  S
O907        C908   1.280       .  A
C908       C2658   1.471       .  S
O913       Mg915   2.159       .  S
O913       Mg921   2.168       .  S
O913        C948   1.233       .  S
C914        O927   1.265       .  A
C914        O951   1.279       .  A
C914        H953   1.082       .  S
Mg915       O944   2.158       .  S
Mg915       O959   2.245       .  S
Mg915       O955   2.219       .  S
Mg915       O926   2.262       .  S
O916       Mg958   2.204       .  S
O916       Mg941   2.248       .  S
O916        C937   1.269       .  A
O917        C948   1.270       .  A
O917       Mg941   2.320       .  S
C918        O920   1.278       .  A
C918        O932   1.273       .  A
O919        C947   1.262       .  A
O919       Mg921   2.279       .  S
O920       Mg952   2.285       .  S
Mg921       O927   2.303       .  S
Mg921       O935   2.237       .  S
Mg921       O923   2.232       .  S
C922        O960   1.259       .  A
C922        O928   1.274       .  A
O923        C930   1.263       .  A
H924        C937   1.082       .  S
C925        O940   1.276       .  A
C925        H950   1.081       .  S
C925        O939   1.241       .  S
O926        C949   1.259       .  A
O927       Mg941   2.271       .  S
O928       Mg958   2.369       .  S
C929        O942   1.269       .  A
C929        O934   1.273       .  A
C929       C1794   1.466       .  S
C930        O957   1.266       .  A
Mg931       O938   2.131       .  S
Mg931       O939   2.111       .  S
Mg931       O932   2.282       .  S
Mg931       O933   2.358       .  S
Mg931       O960   2.177       .  S
O933        C937   1.280       .  A
O934       Mg941   2.301       .  S
O935        C954   1.270       .  A
O936        C956   1.282       .  A
O936       Mg952   2.350       .  S
O938       Mg952   2.201       .  S
O938        C949   1.258       .  A
O939       Mg958   2.160       .  S
O940       Mg952   2.314       .  S
Mg941       O957   2.298       .  S
O942       Mg958   2.265       .  S
H943        C948   1.081       .  S
O944       Mg952   2.110       .  S
O944        C947   1.230       .  S
H945        C947   1.081       .  S
H946        C949   1.082       .  S
O951       Mg958   2.372       .  S
C954        O959   1.269       .  A
C954       C1002   1.462       .  S
O955        C956   1.274       .  A
C956       C2010   1.464       .  S
O961       Mg963   2.160       .  S
O961       Mg969   2.176       .  S
O961        C996   1.235       .  S
C962        O975   1.264       .  A
C962        O999   1.277       .  A
C962       H1001   1.083       .  S
Mg963       O992   2.161       .  S
Mg963      O1007   2.285       .  S
Mg963      O1003   2.269       .  S
Mg963       O974   2.258       .  S
O964      Mg1006   2.214       .  S
O964       Mg989   2.225       .  S
O964        C985   1.270       .  A
O965        C996   1.273       .  A
O965       Mg989   2.331       .  S
C966        O968   1.277       .  A
C966        O980   1.271       .  A
O967        C995   1.261       .  A
O967       Mg969   2.276       .  S
O968      Mg1000   2.297       .  S
Mg969       O975   2.282       .  S
Mg969       O983   2.193       .  S
Mg969       O971   2.224       .  S
C970       O1008   1.262       .  A
C970        O976   1.275       .  A
O971        C978   1.257       .  A
H972        C985   1.082       .  S
C973        O988   1.275       .  A
C973        H998   1.081       .  S
C973        O987   1.242       .  S
O974        C997   1.259       .  A
O975       Mg989   2.255       .  S
O976      Mg1006   2.349       .  S
C977        O990   1.270       .  A
C977        O982   1.270       .  A
C977       C2682   1.453       .  S
C978       O1005   1.263       .  A
Mg979       O986   2.075       .  S
Mg979       O987   2.115       .  S
Mg979       O980   2.256       .  S
Mg979       O981   2.336       .  S
Mg979      O1008   2.204       .  S
O981        C985   1.277       .  A
O982       Mg989   2.263       .  S
O983       C1002   1.264       .  A
O984       C1004   1.283       .  A
O984      Mg1000   2.338       .  S
O986      Mg1000   2.126       .  S
O986        C997   1.229       .  S
O987      Mg1006   2.144       .  S
O988      Mg1000   2.306       .  S
Mg989      O1005   2.318       .  S
O990      Mg1006   2.273       .  S
H991        C996   1.081       .  S
O992      Mg1000   2.126       .  S
O992        C995   1.229       .  S
H993        C995   1.081       .  S
H994        C997   1.081       .  S
O999      Mg1006   2.369       .  S
C1002      O1007   1.277       .  A
O1003      C1004   1.281       .  A
C1004      C1986   1.472       .  S
O1009     Mg1011   2.149       .  S
O1009     Mg1017   2.120       .  S
O1009      C1044   1.241       .  S
C1010      O1047   1.260       .  A
C1010      H1049   1.081       .  S
C1010      O1023   1.230       .  S
Mg1011     O1040   2.207       .  S
Mg1011     O1055   2.365       .  S
Mg1011     O1051   2.307       .  S
Mg1011     O1022   2.384       .  S
O1012     Mg1054   2.147       .  S
O1012     Mg1037   2.111       .  S
O1012      C1033   1.228       .  S
O1013      C1044   1.275       .  A
O1013     Mg1037   2.305       .  S
C1014      O1016   1.263       .  A
C1014      O1028   1.263       .  A
C1014      C1062   1.489       .  S
O1015      C1043   1.278       .  A
O1015     Mg1017   2.350       .  S
O1016     Mg1048   2.291       .  S
Mg1017     O1023   2.080       .  S
Mg1017     O1031   2.206       .  S
Mg1017     O1019   2.280       .  S
C1018      O1056   1.270       .  A
C1018      O1024   1.275       .  A
C1018      C1114   1.462       .  S
O1019      C1026   1.273       .  A
H1020      C1033   1.081       .  S
C1021      O1036   1.272       .  A
C1021      H1046   1.081       .  S
C1021      O1035   1.234       .  S
O1022      C1045   1.281       .  A
O1023     Mg1037   2.130       .  S
O1024     Mg1054   2.275       .  S
C1025      O1038   1.282       .  A
C1025      O1030   1.280       .  A
C1025      C3606   1.477       .  S
C1026      O1053   1.273       .  A
C1026      C4337   1.461       .  S
Mg1027     O1034   2.301       .  S
Mg1027     O1035   2.184       .  S
Mg1027     O1028   2.236       .  S
Mg1027     O1029   2.272       .  S
Mg1027     O1056   2.223       .  S
O1029      C1033   1.260       .  A
O1030     Mg1037   2.327       .  S
O1031      C1050   1.263       .  A
O1032      C1052   1.267       .  A
O1032     Mg1048   2.262       .  S
O1034     Mg1048   2.265       .  S
O1034      C1045   1.267       .  A
O1035     Mg1054   2.178       .  S
O1036     Mg1048   2.323       .  S
Mg1037     O1053   2.261       .  S
O1038     Mg1054   2.294       .  S
H1039      C1044   1.081       .  S
O1040     Mg1048   2.233       .  S
O1040      C1043   1.268       .  A
H1041      C1043   1.082       .  S
H1042      C1045   1.082       .  S
O1047     Mg1054   2.256       .  S
C1050      O1055   1.277       .  A
C1050      C4385   1.466       .  S
O1051      C1052   1.270       .  A
C1052      C2794   1.464       .  S
O1057     Mg1059   2.124       .  S
O1057     Mg1065   2.117       .  S
O1057      C1092   1.239       .  S
C1058      O1071   1.260       .  A
C1058      O1095   1.261       .  A
C1058      H1097   1.082       .  S
Mg1059     O1088   2.201       .  S
Mg1059     O1103   2.372       .  S
Mg1059     O1099   2.259       .  S
Mg1059     O1070   2.387       .  S
O1060     Mg1102   2.154       .  S
O1060     Mg1085   2.115       .  S
O1060      C1081   1.229       .  S
O1061      C1092   1.272       .  A
O1061     Mg1085   2.296       .  S
C1062      O1064   1.266       .  A
C1062      O1076   1.269       .  A
O1063      C1091   1.281       .  A
O1063     Mg1065   2.358       .  S
O1064     Mg1096   2.281       .  S
Mg1065     O1071   2.140       .  S
Mg1065     O1079   2.206       .  S
Mg1065     O1067   2.289       .  S
C1066      O1104   1.277       .  A
C1066      O1072   1.268       .  A
C1066      C1110   1.485       .  S
O1067      C1074   1.275       .  A
H1068      C1081   1.081       .  S
C1069      O1084   1.272       .  A
C1069      H1094   1.081       .  S
C1069      O1083   1.234       .  S
O1070      C1093   1.282       .  A
O1071     Mg1085   2.210       .  S
O1072     Mg1102   2.245       .  S
C1073      O1086   1.274       .  A
C1073      O1078   1.278       .  A
C1074      O1101   1.276       .  A
Mg1075     O1082   2.337       .  S
Mg1075     O1083   2.173       .  S
Mg1075     O1076   2.258       .  S
Mg1075     O1077   2.285       .  S
Mg1075     O1104   2.319       .  S
O1077      C1081   1.262       .  A
O1078     Mg1085   2.325       .  S
O1079      C1098   1.263       .  A
O1080      C1100   1.273       .  A
O1080     Mg1096   2.317       .  S
O1082     Mg1096   2.271       .  S
O1082      C1093   1.267       .  A
O1083     Mg1102   2.174       .  S
O1084     Mg1096   2.323       .  S
Mg1085     O1101   2.271       .  S
O1086     Mg1102   2.222       .  S
H1087      C1092   1.081       .  S
O1088     Mg1096   2.259       .  S
O1088      C1091   1.270       .  A
H1089      C1091   1.082       .  S
H1090      C1093   1.082       .  S
O1095     Mg1102   2.263       .  S
C1098      O1103   1.278       .  A
O1099      C1100   1.267       .  A
C1100      C2790   1.469       .  S
O1105     Mg1107   2.161       .  S
O1105     Mg1113   2.120       .  S
O1105      C1140   1.243       .  S
C1106      O1119   1.255       .  A
C1106      O1143   1.257       .  A
C1106      H1145   1.082       .  S
Mg1107     O1136   2.228       .  S
Mg1107     O1151   2.359       .  S
Mg1107     O1147   2.261       .  S
Mg1107     O1118   2.360       .  S
O1108     Mg1150   2.174       .  S
O1108     Mg1133   2.130       .  S
O1108      C1129   1.231       .  S
O1109      C1140   1.277       .  A
O1109     Mg1133   2.315       .  S
C1110      O1112   1.267       .  A
C1110      O1124   1.255       .  A
O1111      C1139   1.277       .  A
O1111     Mg1113   2.331       .  S
O1112     Mg1144   2.341       .  S
Mg1113     O1119   2.122       .  S
Mg1113     O1127   2.168       .  S
Mg1113     O1115   2.278       .  S
C1114      O1152   1.265       .  A
C1114      O1120   1.271       .  A
O1115      C1122   1.273       .  A
H1116      C1129   1.081       .  S
C1117      O1132   1.275       .  A
C1117      H1142   1.081       .  S
C1117      O1131   1.236       .  S
O1118      C1141   1.275       .  A
O1119     Mg1133   2.190       .  S
O1120     Mg1150   2.260       .  S
C1121      O1134   1.274       .  A
C1121      O1126   1.282       .  A
C1121      C3610   1.462       .  S
C1122      O1149   1.279       .  A
C1122      C4028   1.474       .  S
Mg1123     O1130   2.291       .  S
Mg1123     O1131   2.155       .  S
Mg1123     O1124   2.211       .  S
Mg1123     O1125   2.284       .  S
Mg1123     O1152   2.215       .  S
O1125      C1129   1.264       .  A
O1126     Mg1133   2.350       .  S
O1127      C1146   1.260       .  A
O1128      C1148   1.279       .  A
O1128     Mg1144   2.321       .  S
O1130     Mg1144   2.255       .  S
O1130      C1141   1.262       .  A
O1131     Mg1150   2.151       .  S
O1132     Mg1144   2.340       .  S
Mg1133     O1149   2.311       .  S
O1134     Mg1150   2.208       .  S
H1135      C1140   1.081       .  S
O1136     Mg1144   2.243       .  S
O1136      C1139   1.271       .  A
H1137      C1139   1.082       .  S
H1138      C1141   1.083       .  S
O1143     Mg1150   2.265       .  S
C1146      O1151   1.276       .  A
C1146      C3980   1.464       .  S
O1147      C1148   1.271       .  A
O1153     Mg1155   2.140       .  S
O1153     Mg1161   2.121       .  S
O1153      C1188   1.242       .  S
C1154      O1167   1.257       .  A
C1154      O1191   1.259       .  A
C1154      H1193   1.082       .  S
Mg1155     O1184   2.223       .  S
Mg1155     O1199   2.360       .  S
Mg1155     O1195   2.249       .  S
Mg1155     O1166   2.372       .  S
O1156     Mg1198   2.173       .  S
O1156     Mg1181   2.130       .  S
O1156      C1177   1.231       .  S
O1157      C1188   1.276       .  A
O1157     Mg1181   2.305       .  S
C1158      O1160   1.263       .  A
C1158      O1172   1.260       .  A
C1158      C1258   1.481   1_565  S
O1159      C1187   1.277       .  A
O1159     Mg1161   2.327       .  S
O1160     Mg1192   2.308       .  S
Mg1161     O1167   2.128       .  S
Mg1161     O1175   2.178       .  S
Mg1161     O1163   2.284       .  S
C1162      O1200   1.269       .  A
C1162      O1168   1.274       .  A
C1162      C1206   1.478   1_455  S
O1163      C1170   1.274       .  A
H1164      C1177   1.081       .  S
C1165      O1180   1.278       .  A
C1165      H1190   1.081       .  S
C1165      O1179   1.237       .  S
O1166      C1189   1.278       .  A
O1167     Mg1181   2.190       .  S
O1168     Mg1198   2.263       .  S
C1169      O1182   1.283       .  A
C1169      O1174   1.280       .  A
C1170      O1197   1.277       .  A
C1170      C3260   1.475       .  S
Mg1171     O1178   2.325       .  S
Mg1171     O1179   2.176       .  S
Mg1171     O1172   2.218       .  S
Mg1171     O1173   2.287       .  S
Mg1171     O1200   2.269       .  S
O1173      C1177   1.265       .  A
O1174     Mg1181   2.323       .  S
O1175      C1194   1.262       .  A
O1176      C1196   1.279       .  A
O1176     Mg1192   2.335       .  S
O1178     Mg1192   2.266       .  S
O1178      C1189   1.264       .  A
O1179     Mg1198   2.194       .  S
O1180     Mg1192   2.353       .  S
Mg1181     O1197   2.309       .  S
O1182     Mg1198   2.283       .  S
H1183      C1188   1.081       .  S
O1184     Mg1192   2.232       .  S
O1184      C1187   1.271       .  A
H1185      C1187   1.082       .  S
H1186      C1189   1.082       .  S
O1191     Mg1198   2.271       .  S
C1194      O1199   1.276       .  A
C1194      C3308   1.467       .  S
O1195      C1196   1.269       .  A
C1196      C2742   1.467       .  S
O1201     Mg1203   2.138       .  S
O1201     Mg1209   2.118       .  S
O1201      C1236   1.239   1_565  S
C1202      O1239   1.259       .  A
C1202      H1241   1.081       .  S
C1202      O1215   1.229       .  S
Mg1203     O1232   2.215       .  S
Mg1203     O1247   2.345       .  S
Mg1203     O1243   2.277       .  S
Mg1203     O1214   2.380       .  S
O1204     Mg1246   2.167       .  S
O1204     Mg1229   2.149       .  S
O1204      C1225   1.232       .  S
O1205      C1236   1.272       .  A
O1205     Mg1229   2.298       .  S
C1206      O1208   1.262       .  A
C1206      O1220   1.260       .  A
O1207      C1235   1.279       .  A
O1207     Mg1209   2.338       .  S
O1208     Mg1240   2.298       .  S
Mg1209     O1215   2.078   1_565  S
Mg1209     O1223   2.209       .  S
Mg1209     O1211   2.271   1_565  S
C1210      O1248   1.269       .  A
C1210      O1216   1.272       .  A
C1210      C1254   1.483       .  S
O1211      C1218   1.273       .  A
H1212      C1225   1.081       .  S
C1213      O1227   1.262       .  A
C1213      O1228   1.273       .  A
C1213      H1238   1.083       .  S
O1214      C1237   1.280       .  A
O1215     Mg1229   2.133       .  S
O1216     Mg1246   2.276       .  S
C1217      O1230   1.274       .  A
C1217      O1222   1.285       .  A
C1217      C4090   1.466       .  S
C1218      O1245   1.282       .  A
Mg1219     O1226   2.304   1_545  S
Mg1219     O1227   2.259   1_545  S
Mg1219     O1220   2.213   1_545  S
Mg1219     O1221   2.296       .  S
Mg1219     O1248   2.280       .  S
O1221      C1225   1.266       .  A
O1222     Mg1229   2.364       .  S
O1223      C1242   1.263       .  A
O1224      C1244   1.270       .  A
O1224     Mg1240   2.277       .  S
O1226     Mg1240   2.278       .  S
O1226      C1237   1.266       .  A
O1227     Mg1246   2.247   1_565  S
O1228     Mg1240   2.345       .  S
Mg1229     O1245   2.327       .  S
O1230     Mg1246   2.203       .  S
H1231      C1236   1.081   1_565  S
O1232     Mg1240   2.238       .  S
O1232      C1235   1.271       .  A
H1233      C1235   1.082       .  S
H1234      C1237   1.082       .  S
O1239     Mg1246   2.254       .  S
C1242      O1247   1.275       .  A
O1243      C1244   1.268       .  A
O1249     Mg1251   2.148       .  S
O1249     Mg1257   2.113   1_655  S
O1249      C1284   1.239   1_655  S
C1250      O1263   1.257       .  A
C1250      O1287   1.259       .  A
C1250      H1289   1.082       .  S
Mg1251     O1280   2.201       .  S
Mg1251     O1295   2.365       .  S
Mg1251     O1291   2.257       .  S
Mg1251     O1262   2.376       .  S
O1252     Mg1294   2.171       .  S
O1252     Mg1277   2.142       .  S
O1252      C1273   1.230       .  S
O1253      C1284   1.273       .  A
O1253     Mg1277   2.301       .  S
C1254      O1256   1.264       .  A
C1254      O1268   1.261       .  A
O1255      C1283   1.279       .  A
O1255     Mg1257   2.348   1_655  S
O1256     Mg1288   2.313       .  S
Mg1257     O1263   2.135       .  S
Mg1257     O1271   2.174   1_455  S
Mg1257     O1259   2.281       .  S
C1258      O1296   1.271       .  A
C1258      O1264   1.273       .  A
O1259      C1266   1.273       .  A
H1260      C1273   1.081       .  S
C1261      O1276   1.274       .  A
C1261      H1286   1.081       .  S
C1261      O1275   1.235   1_655  S
O1262      C1285   1.280       .  A
O1263     Mg1277   2.207       .  S
O1264     Mg1294   2.274       .  S
C1265      O1278   1.275       .  A
C1265      O1270   1.281       .  A
C1265      C2746   1.462       .  S
C1266      O1293   1.280       .  A
C1266      C3473   1.471       .  S
Mg1267     O1274   2.319   1_455  S
Mg1267     O1275   2.163       .  S
Mg1267     O1268   2.215   1_455  S
Mg1267     O1269   2.290       .  S
Mg1267     O1296   2.282       .  S
O1269      C1273   1.264       .  A
O1270     Mg1277   2.339       .  S
O1271      C1290   1.259       .  A
O1272      C1292   1.275       .  A
O1272     Mg1288   2.316       .  S
O1274     Mg1288   2.268       .  S
O1274      C1285   1.266       .  A
O1275     Mg1294   2.160       .  S
O1276     Mg1288   2.338       .  S
Mg1277     O1293   2.308       .  S
O1278     Mg1294   2.215       .  S
H1279      C1284   1.081       .  S
O1280     Mg1288   2.240       .  S
O1280      C1283   1.270       .  A
H1281      C1283   1.082       .  S
H1282      C1285   1.082       .  S
O1287     Mg1294   2.268       .  S
C1290      O1295   1.275       .  A
C1290      C3596   1.465       .  S
O1291      C1292   1.268       .  A
C1292      C4086   1.466       .  S
O1297     Mg1299   2.136       .  S
O1297     Mg1305   2.117   1_565  S
O1297      C1332   1.239   1_565  S
C1298      O1335   1.261       .  A
C1298      H1337   1.081       .  S
C1298      O1311   1.232       .  S
Mg1299     O1328   2.212       .  S
Mg1299     O1343   2.386       .  S
Mg1299     O1339   2.265       .  S
Mg1299     O1310   2.388       .  S
O1300     Mg1342   2.146       .  S
O1300     Mg1325   2.113       .  S
O1300      C1321   1.229       .  S
O1301      C1332   1.272       .  A
O1301     Mg1325   2.293       .  S
C1302      O1304   1.265       .  A
C1302      O1316   1.270       .  A
C1302      C1398   1.490       .  S
O1303      C1331   1.279       .  A
O1303     Mg1305   2.346   1_565  S
O1304     Mg1336   2.280       .  S
Mg1305     O1311   2.058       .  S
Mg1305     O1319   2.168   1_545  S
Mg1305     O1307   2.267       .  S
C1306      O1344   1.278       .  A
C1306      O1312   1.267       .  A
C1306      C1350   1.490       .  S
O1307      C1314   1.271       .  A
H1308      C1321   1.081       .  S
C1309      O1324   1.272       .  A
C1309      H1334   1.081       .  S
C1309      O1323   1.234   1_565  S
O1310      C1333   1.282       .  A
O1311     Mg1325   2.131       .  S
O1312     Mg1342   2.235       .  S
C1313      O1326   1.275       .  A
C1313      O1318   1.278       .  A
C1313      C3562   1.461       .  S
C1314      O1341   1.275       .  A
Mg1315     O1322   2.350   1_545  S
Mg1315     O1323   2.175       .  S
Mg1315     O1316   2.262   1_545  S
Mg1315     O1317   2.288       .  S
Mg1315     O1344   2.334       .  S
O1317      C1321   1.263       .  A
O1318     Mg1325   2.323       .  S
O1319      C1338   1.259       .  A
O1320      C1340   1.274       .  A
O1320     Mg1336   2.323       .  S
O1322     Mg1336   2.277       .  S
O1322      C1333   1.266       .  A
O1323     Mg1342   2.184       .  S
O1324     Mg1336   2.327       .  S
Mg1325     O1341   2.273       .  S
O1326     Mg1342   2.229       .  S
H1327      C1332   1.081       .  S
O1328     Mg1336   2.256       .  S
O1328      C1331   1.271       .  A
H1329      C1331   1.082       .  S
H1330      C1333   1.082       .  S
O1335     Mg1342   2.250       .  S
C1338      O1343   1.279       .  A
O1339      C1340   1.270       .  A
O1345     Mg1347   2.159       .  S
O1345     Mg1353   2.119       .  S
O1345      C1380   1.242       .  S
C1346      O1359   1.255       .  A
C1346      O1383   1.256       .  A
C1346      H1385   1.083       .  S
Mg1347     O1376   2.236       .  S
Mg1347     O1391   2.358       .  S
Mg1347     O1387   2.261       .  S
Mg1347     O1358   2.360       .  S
O1348     Mg1390   2.175       .  S
O1348     Mg1373   2.126       .  S
O1348      C1369   1.230       .  S
O1349      C1380   1.276       .  A
O1349     Mg1373   2.312       .  S
C1350      O1352   1.268       .  A
C1350      O1364   1.254       .  A
O1351      C1379   1.278       .  A
O1351     Mg1353   2.331       .  S
O1352     Mg1384   2.353       .  S
Mg1353     O1359   2.118       .  S
Mg1353     O1367   2.161       .  S
Mg1353     O1355   2.277       .  S
C1354      O1392   1.265       .  A
C1354      O1360   1.271       .  A
C1354      C1402   1.458   1_545  S
O1355      C1362   1.273       .  A
H1356      C1369   1.081       .  S
C1357      O1372   1.275       .  A
C1357      H1382   1.081       .  S
C1357      O1371   1.236       .  S
O1358      C1381   1.275       .  A
O1359     Mg1373   2.190       .  S
O1360     Mg1390   2.258       .  S
C1361      O1374   1.274       .  A
C1361      O1366   1.282       .  A
C1361      C2554   1.461       .  S
C1362      O1389   1.278       .  A
C1362      C4076   1.472       .  S
Mg1363     O1370   2.296       .  S
Mg1363     O1371   2.156       .  S
Mg1363     O1364   2.201       .  S
Mg1363     O1365   2.281       .  S
Mg1363     O1392   2.214       .  S
O1365      C1369   1.263       .  A
O1366     Mg1373   2.346       .  S
O1367      C1386   1.259       .  A
O1368      C1388   1.280       .  A
O1368     Mg1384   2.327       .  S
O1370     Mg1384   2.256       .  S
O1370      C1381   1.262       .  A
O1371     Mg1390   2.151       .  S
O1372     Mg1384   2.345       .  S
Mg1373     O1389   2.305       .  S
O1374     Mg1390   2.203       .  S
H1375      C1380   1.081       .  S
O1376     Mg1384   2.250       .  S
O1376      C1379   1.272       .  A
H1377      C1379   1.082       .  S
H1378      C1381   1.083       .  S
O1383     Mg1390   2.264       .  S
C1386      O1391   1.276       .  A
C1386      C4124   1.462       .  S
O1387      C1388   1.272       .  A
C1388      C3558   1.468       .  S
O1393     Mg1395   2.157       .  S
O1393     Mg1401   2.115       .  S
O1393      C1428   1.242       .  S
C1394      O1407   1.256       .  A
C1394      O1431   1.258       .  A
C1394      H1433   1.083       .  S
Mg1395     O1424   2.219       .  S
Mg1395     O1439   2.386       .  S
Mg1395     O1435   2.304       .  S
Mg1395     O1406   2.374       .  S
O1396     Mg1438   2.162       .  S
O1396     Mg1421   2.105       .  S
O1396      C1417   1.228       .  S
O1397      C1428   1.277       .  A
O1397     Mg1421   2.311       .  S
C1398      O1400   1.264       .  A
C1398      O1412   1.261       .  A
O1399      C1427   1.277       .  A
O1399     Mg1401   2.345       .  S
O1400     Mg1432   2.302       .  S
Mg1401     O1407   2.131       .  S
Mg1401     O1415   2.162       .  S
Mg1401     O1403   2.286       .  S
C1402      O1440   1.269       .  A
C1402      O1408   1.275       .  A
O1403      C1410   1.272       .  A
H1404      C1417   1.081       .  S
C1405      O1420   1.272       .  A
C1405      H1430   1.081       .  S
C1405      O1419   1.235       .  S
O1406      C1429   1.279       .  A
O1407     Mg1421   2.192       .  S
O1408     Mg1438   2.272       .  S
C1409      O1422   1.281       .  A
C1409      O1414   1.278       .  A
C1409      C2550   1.467       .  S
C1410      O1437   1.272       .  A
C1410      C4433   1.462       .  S
Mg1411     O1418   2.299       .  S
Mg1411     O1419   2.179       .  S
Mg1411     O1412   2.224       .  S
Mg1411     O1413   2.271       .  S
Mg1411     O1440   2.216       .  S
O1413      C1417   1.260       .  A
O1414     Mg1421   2.310       .  S
O1415      C1434   1.259       .  A
O1416      C1436   1.268       .  A
O1416     Mg1432   2.257       .  S
O1418     Mg1432   2.265       .  S
O1418      C1429   1.266       .  A
O1419     Mg1438   2.167       .  S
O1420     Mg1432   2.324       .  S
Mg1421     O1437   2.258       .  S
O1422     Mg1438   2.270       .  S
H1423      C1428   1.081       .  S
O1424     Mg1432   2.235       .  S
O1424      C1427   1.268       .  A
H1425      C1427   1.082       .  S
H1426      C1429   1.082       .  S
O1431     Mg1438   2.269       .  S
C1434      O1439   1.279       .  A
C1434      C4412   1.466       .  S
O1435      C1436   1.273       .  A
O1441     Mg1443   2.146       .  S
O1441     Mg1449   2.124   1_556  S
O1441      C1476   1.242   1_556  S
C1442      O1455   1.258       .  A
C1442      O1479   1.260       .  A
C1442      H1481   1.083       .  S
Mg1443     O1472   2.222       .  S
Mg1443     O1487   2.387       .  S
Mg1443     O1483   2.301       .  S
Mg1443     O1454   2.387       .  S
O1444     Mg1486   2.168       .  S
O1444     Mg1469   2.119       .  S
O1444      C1465   1.229       .  S
O1445      C1476   1.276       .  A
O1445     Mg1469   2.308       .  S
C1446      O1448   1.262       .  A
C1446      O1460   1.269       .  A
C1446      C1542   1.490       .  S
O1447      C1475   1.276       .  A
O1447     Mg1449   2.332   1_556  S
O1448     Mg1480   2.275       .  S
Mg1449     O1455   2.128       .  S
Mg1449     O1463   2.152   1_554  S
Mg1449     O1451   2.269       .  S
C1450      O1488   1.275       .  A
C1450      O1456   1.271       .  A
C1450      C1494   1.485       .  S
O1451      C1458   1.271       .  A
H1452      C1465   1.081       .  S
C1453      O1468   1.274       .  A
C1453      H1478   1.081       .  S
C1453      O1467   1.235   1_556  S
O1454      C1477   1.281       .  A
O1455     Mg1469   2.195       .  S
O1456     Mg1486   2.246       .  S
C1457      O1470   1.281       .  A
C1457      O1462   1.280       .  A
C1457      C2502   1.470       .  S
C1458      O1485   1.276       .  A
Mg1459     O1466   2.341   1_554  S
Mg1459     O1467   2.189       .  S
Mg1459     O1460   2.256   1_554  S
Mg1459     O1461   2.287       .  S
Mg1459     O1488   2.308       .  S
O1461      C1465   1.263       .  A
O1462     Mg1469   2.315       .  S
O1463      C1482   1.259       .  A
O1464      C1484   1.271       .  A
O1464     Mg1480   2.284       .  S
O1466     Mg1480   2.277       .  S
O1466      C1477   1.266       .  A
O1467     Mg1486   2.202       .  S
O1468     Mg1480   2.330       .  S
Mg1469     O1485   2.301       .  S
O1470     Mg1486   2.283       .  S
H1471      C1476   1.081   1_556  S
O1472     Mg1480   2.232       .  S
O1472      C1475   1.268       .  A
H1473      C1475   1.082       .  S
H1474      C1477   1.082       .  S
O1479     Mg1486   2.270       .  S
C1482      O1487   1.280       .  A
O1483      C1484   1.271       .  A
O1489     Mg1491   2.158       .  S
O1489     Mg1497   2.114       .  S
O1489      C1524   1.242       .  S
C1490      O1503   1.255       .  A
C1490      O1527   1.257       .  A
C1490      H1529   1.082       .  S
Mg1491     O1520   2.219       .  S
Mg1491     O1535   2.341       .  S
Mg1491     O1531   2.279       .  S
Mg1491     O1502   2.361       .  S
O1492     Mg1534   2.172       .  S
O1492     Mg1517   2.131       .  S
O1492      C1513   1.230       .  S
O1493      C1524   1.277       .  A
O1493     Mg1517   2.316       .  S
C1494      O1496   1.264       .  A
C1494      O1508   1.255       .  A
O1495      C1523   1.278       .  A
O1495     Mg1497   2.344       .  S
O1496     Mg1528   2.335       .  S
Mg1497     O1503   2.131       .  S
Mg1497     O1511   2.186       .  S
Mg1497     O1499   2.276       .  S
C1498      O1536   1.264       .  A
C1498      O1504   1.274       .  A
C1498      C1546   1.459   1_554  S
O1499      C1506   1.273       .  A
H1500      C1513   1.081       .  S
C1501      O1516   1.273       .  A
C1501      H1526   1.081       .  S
C1501      O1515   1.235       .  S
O1502      C1525   1.276       .  A
O1503     Mg1517   2.195       .  S
O1504     Mg1534   2.270       .  S
C1505      O1518   1.276       .  A
C1505      O1510   1.283       .  A
C1505      C3994   1.463       .  S
C1506      O1533   1.279       .  A
C1506      C3212   1.473       .  S
Mg1507     O1514   2.275       .  S
Mg1507     O1515   2.167       .  S
Mg1507     O1508   2.204       .  S
Mg1507     O1509   2.278       .  S
Mg1507     O1536   2.192       .  S
O1509      C1513   1.263       .  A
O1510     Mg1517   2.355       .  S
O1511      C1530   1.260       .  A
O1512      C1532   1.271       .  A
O1512     Mg1528   2.260       .  S
O1514     Mg1528   2.262       .  S
O1514      C1525   1.263       .  A
O1515     Mg1534   2.143       .  S
O1516     Mg1528   2.329       .  S
Mg1517     O1533   2.310       .  S
O1518     Mg1534   2.211       .  S
H1519      C1524   1.081       .  S
O1520     Mg1528   2.231       .  S
O1520      C1523   1.270       .  A
H1521      C1523   1.082       .  S
H1522      C1525   1.083       .  S
O1527     Mg1534   2.268       .  S
C1530      O1535   1.274       .  A
C1530      C3233   1.455       .  S
O1531      C1532   1.270       .  A
C1532      C2506   1.452       .  S
O1537     Mg1539   2.154       .  S
O1537     Mg1545   2.119       .  S
O1537      C1572   1.243       .  S
C1538      O1551   1.257       .  A
C1538      O1575   1.258       .  A
C1538      H1577   1.082       .  S
Mg1539     O1568   2.214       .  S
Mg1539     O1583   2.378       .  S
Mg1539     O1579   2.269       .  S
Mg1539     O1550   2.371       .  S
O1540     Mg1582   2.162       .  S
O1540     Mg1565   2.100       .  S
O1540      C1561   1.230       .  S
O1541      C1572   1.277       .  A
O1541     Mg1565   2.313       .  S
C1542      O1544   1.265       .  A
C1542      O1556   1.262       .  A
O1543      C1571   1.278       .  A
O1543     Mg1545   2.346       .  S
O1544     Mg1576   2.305       .  S
Mg1545     O1551   2.127       .  S
Mg1545     O1559   2.166       .  S
Mg1545     O1547   2.285       .  S
C1546      O1584   1.269       .  A
C1546      O1552   1.271       .  A
O1547      C1554   1.272       .  A
H1548      C1561   1.081       .  S
C1549      O1564   1.274       .  A
C1549      H1574   1.081       .  S
C1549      O1563   1.235       .  S
O1550      C1573   1.278       .  A
O1551     Mg1565   2.190       .  S
O1552     Mg1582   2.250       .  S
C1553      O1566   1.281       .  A
C1553      O1558   1.280       .  A
C1553      C3990   1.473       .  S
C1554      O1581   1.273       .  A
C1554      C3617   1.463       .  S
Mg1555     O1562   2.306       .  S
Mg1555     O1563   2.179       .  S
Mg1555     O1556   2.229       .  S
Mg1555     O1557   2.274       .  S
Mg1555     O1584   2.223       .  S
O1557      C1561   1.261       .  A
O1558     Mg1565   2.321       .  S
O1559      C1578   1.259       .  A
O1560      C1580   1.274       .  A
O1560     Mg1576   2.307       .  S
O1562     Mg1576   2.267       .  S
O1562      C1573   1.264       .  A
O1563     Mg1582   2.184       .  S
O1564     Mg1576   2.331       .  S
Mg1565     O1581   2.266       .  S
O1566     Mg1582   2.282       .  S
H1567      C1572   1.081       .  S
O1568     Mg1576   2.245       .  S
O1568      C1571   1.269       .  A
H1569      C1571   1.082       .  S
H1570      C1573   1.082       .  S
O1575     Mg1582   2.268       .  S
C1578      O1583   1.278       .  A
C1578      C3740   1.467       .  S
O1579      C1580   1.271       .  A
O1585     Mg1587   2.138       .  S
O1585     Mg1593   2.118       .  S
O1585      C1620   1.242       .  S
C1586      O1599   1.258       .  A
C1586      O1623   1.260       .  A
C1586      H1625   1.082       .  S
Mg1587     O1616   2.211       .  S
Mg1587     O1631   2.368       .  S
Mg1587     O1627   2.260       .  S
Mg1587     O1598   2.373       .  S
O1588     Mg1630   2.151       .  S
O1588     Mg1613   2.096       .  S
O1588      C1609   1.229       .  S
O1589      C1620   1.276       .  A
O1589     Mg1613   2.308       .  S
C1590      O1592   1.266       .  A
C1590      O1604   1.264       .  A
C1590      C1686   1.490   1_565  S
O1591      C1619   1.280       .  A
O1591     Mg1593   2.354       .  S
O1592     Mg1624   2.302       .  S
Mg1593     O1599   2.144       .  S
Mg1593     O1607   2.211       .  S
Mg1593     O1595   2.301       .  S
C1594      O1632   1.269       .  A
C1594      O1600   1.273       .  A
C1594      C1642   1.458       .  S
O1595      C1602   1.276       .  A
H1596      C1609   1.081       .  S
C1597      O1612   1.273       .  A
C1597      H1622   1.081       .  S
C1597      O1611   1.234       .  S
O1598      C1621   1.278       .  A
O1599     Mg1613   2.194       .  S
O1600     Mg1630   2.257       .  S
C1601      O1614   1.282       .  A
C1601      O1606   1.279       .  A
C1601      C4374   1.474       .  S
C1602      O1629   1.273       .  A
Mg1603     O1610   2.302       .  S
Mg1603     O1611   2.182       .  S
Mg1603     O1604   2.249       .  S
Mg1603     O1605   2.273       .  S
Mg1603     O1632   2.220       .  S
O1605      C1609   1.261       .  A
O1606     Mg1613   2.321       .  S
O1607      C1626   1.264       .  A
O1608      C1628   1.272       .  A
O1608     Mg1624   2.302       .  S
O1610     Mg1624   2.258       .  S
O1610      C1621   1.265       .  A
O1611     Mg1630   2.185       .  S
O1612     Mg1624   2.328       .  S
Mg1613     O1629   2.252       .  S
O1614     Mg1630   2.289       .  S
H1615      C1620   1.081       .  S
O1616     Mg1624   2.255       .  S
O1616      C1619   1.270       .  A
H1617      C1619   1.082       .  S
H1618      C1621   1.082       .  S
O1623     Mg1630   2.270       .  S
C1626      O1631   1.277       .  A
O1627      C1628   1.269       .  A
O1633     Mg1635   2.142       .  S
O1633     Mg1641   2.111       .  S
O1633      C1668   1.240   1_545  S
C1634      O1671   1.260       .  A
C1634      H1673   1.081       .  S
C1634      O1647   1.230       .  S
Mg1635     O1664   2.210       .  S
Mg1635     O1679   2.340       .  S
Mg1635     O1675   2.242       .  S
Mg1635     O1646   2.363       .  S
O1636     Mg1678   2.148       .  S
O1636     Mg1661   2.120       .  S
O1636      C1657   1.230       .  S
O1637      C1668   1.273       .  A
O1637     Mg1661   2.300       .  S
C1638      O1640   1.265       .  A
C1638      O1652   1.257       .  A
C1638      C1690   1.485       .  S
O1639      C1667   1.281       .  A
O1639     Mg1641   2.353       .  S
O1640     Mg1672   2.326       .  S
Mg1641     O1647   2.078   1_545  S
Mg1641     O1655   2.227       .  S
Mg1641     O1643   2.301   1_545  S
C1642      O1680   1.266       .  A
C1642      O1648   1.273       .  A
O1643      C1650   1.277       .  A
H1644      C1657   1.081       .  S
C1645      O1660   1.273       .  A
C1645      H1670   1.081       .  S
C1645      O1659   1.235       .  S
O1646      C1669   1.276       .  A
O1647     Mg1661   2.132       .  S
O1648     Mg1678   2.271       .  S
C1649      O1662   1.276       .  A
C1649      O1654   1.280       .  A
C1649      C4378   1.467       .  S
C1650      O1677   1.275       .  A
C1650      C2801   1.465       .  S
Mg1651     O1658   2.283       .  S
Mg1651     O1659   2.164       .  S
Mg1651     O1652   2.211       .  S
Mg1651     O1653   2.276   1_545  S
Mg1651     O1680   2.205   1_545  S
O1653      C1657   1.262       .  A
O1654     Mg1661   2.349       .  S
O1655      C1674   1.266       .  A
O1656      C1676   1.274       .  A
O1656     Mg1672   2.308       .  S
O1658     Mg1672   2.259       .  S
O1658      C1669   1.263       .  A
O1659     Mg1678   2.147   1_545  S
O1660     Mg1672   2.333       .  S
Mg1661     O1677   2.266       .  S
O1662     Mg1678   2.221       .  S
H1663      C1668   1.081   1_545  S
O1664     Mg1672   2.251       .  S
O1664      C1667   1.273       .  A
H1665      C1667   1.082       .  S
H1666      C1669   1.082       .  S
O1671     Mg1678   2.253       .  S
C1674      O1679   1.273       .  A
C1674      C2849   1.467       .  S
O1675      C1676   1.268       .  A
C1676      C2358   1.460       .  S
O1681     Mg1683   2.140       .  S
O1681     Mg1689   2.118       .  S
O1681      C1716   1.241       .  S
C1682      O1695   1.260       .  A
C1682      O1719   1.261       .  A
C1682      H1721   1.082       .  S
Mg1683     O1712   2.199       .  S
Mg1683     O1727   2.381       .  S
Mg1683     O1723   2.311       .  S
Mg1683     O1694   2.394       .  S
O1684     Mg1726   2.159       .  S
O1684     Mg1709   2.134       .  S
O1684      C1705   1.229       .  S
O1685      C1716   1.274       .  A
O1685     Mg1709   2.303       .  S
C1686      O1688   1.264       .  A
C1686      O1700   1.269       .  A
O1687      C1715   1.280       .  A
O1687     Mg1689   2.358       .  S
O1688     Mg1720   2.278       .  S
Mg1689     O1695   2.149       .  S
Mg1689     O1703   2.213       .  S
Mg1689     O1691   2.297       .  S
C1690      O1728   1.276       .  A
C1690      O1696   1.272       .  A
O1691      C1698   1.277       .  A
H1692      C1705   1.081       .  S
C1693      O1708   1.271       .  A
C1693      H1718   1.081       .  S
C1693      O1707   1.234       .  S
O1694      C1717   1.284       .  A
O1695     Mg1709   2.208       .  S
O1696     Mg1726   2.265       .  S
C1697      O1710   1.276       .  A
C1697      O1702   1.282       .  A
C1697      C2362   1.470       .  S
C1698      O1725   1.281       .  A
C1698      C4193   1.472       .  S
Mg1699     O1706   2.327       .  S
Mg1699     O1707   2.178       .  S
Mg1699     O1700   2.264       .  S
Mg1699     O1701   2.286       .  S
Mg1699     O1728   2.305       .  S
O1701      C1705   1.262       .  A
O1702     Mg1709   2.355       .  S
O1703      C1722   1.265       .  A
O1704      C1724   1.267       .  A
O1704     Mg1720   2.276       .  S
O1706     Mg1720   2.266       .  S
O1706      C1717   1.269       .  A
O1707     Mg1726   2.175       .  S
O1708     Mg1720   2.319       .  S
Mg1709     O1725   2.302       .  S
O1710     Mg1726   2.232       .  S
H1711      C1716   1.081       .  S
O1712     Mg1720   2.251       .  S
O1712      C1715   1.270       .  A
H1713      C1715   1.082       .  S
H1714      C1717   1.082       .  S
O1719     Mg1726   2.265       .  S
C1722      O1727   1.279       .  A
C1722      C4241   1.471       .  S
O1723      C1724   1.270       .  A
O1729     Mg1731   2.172       .  S
O1729     Mg1737   2.106       .  S
O1729      C1764   1.240       .  S
C1730      O1743   1.255       .  A
C1730      O1767   1.257       .  A
C1730      H1769   1.082       .  S
Mg1731     O1760   2.200       .  S
Mg1731     O1775   2.357       .  S
Mg1731     O1771   2.262       .  S
Mg1731     O1742   2.363       .  S
O1732     Mg1774   2.168       .  S
O1732     Mg1757   2.122       .  S
O1732      C1753   1.230       .  S
O1733      C1764   1.275       .  A
O1733     Mg1757   2.313       .  S
C1734      O1736   1.266       .  A
C1734      O1748   1.256       .  A
C1734      C1786   1.487       .  S
O1735      C1763   1.280       .  A
O1735     Mg1737   2.356       .  S
O1736     Mg1768   2.333       .  S
Mg1737     O1743   2.135       .  S
Mg1737     O1751   2.178       .  S
Mg1737     O1739   2.288       .  S
C1738      O1776   1.267       .  A
C1738      O1744   1.273       .  A
C1738      C1834   1.461       .  S
O1739      C1746   1.274       .  A
H1740      C1753   1.081       .  S
C1741      O1756   1.273       .  A
C1741      H1766   1.081       .  S
C1741      O1755   1.235       .  S
O1742      C1765   1.277       .  A
O1743     Mg1757   2.204       .  S
O1744     Mg1774   2.272       .  S
C1745      O1758   1.276       .  A
C1745      O1750   1.280       .  A
C1746      O1773   1.277       .  A
Mg1747     O1754   2.294       .  S
Mg1747     O1755   2.165       .  S
Mg1747     O1748   2.202       .  S
Mg1747     O1749   2.275       .  S
Mg1747     O1776   2.212       .  S
O1749      C1753   1.262       .  A
O1750     Mg1757   2.337       .  S
O1751      C1770   1.257       .  A
O1752      C1772   1.276       .  A
O1752     Mg1768   2.312       .  S
O1754     Mg1768   2.265       .  S
O1754      C1765   1.264       .  A
O1755     Mg1774   2.150       .  S
O1756     Mg1768   2.335       .  S
Mg1757     O1773   2.280       .  S
O1758     Mg1774   2.223       .  S
H1759      C1764   1.081       .  S
O1760     Mg1768   2.237       .  S
O1760      C1763   1.270       .  A
H1761      C1763   1.082       .  S
H1762      C1765   1.082       .  S
O1767     Mg1774   2.266       .  S
C1770      O1775   1.271       .  A
O1771      C1772   1.270       .  A
C1772      C3366   1.466       .  S
O1777     Mg1779   2.131       .  S
O1777     Mg1785   2.114       .  S
O1777      C1812   1.239       .  S
C1778      O1815   1.262       .  A
C1778      H1817   1.081       .  S
C1778      O1791   1.232       .  S
Mg1779     O1808   2.201       .  S
Mg1779     O1823   2.358       .  S
Mg1779     O1819   2.263       .  S
Mg1779     O1790   2.385       .  S
O1780     Mg1822   2.144       .  S
O1780     Mg1805   2.126       .  S
O1780      C1801   1.230       .  S
O1781      C1812   1.272       .  A
O1781     Mg1805   2.295       .  S
C1782      O1784   1.265       .  A
C1782      O1796   1.269       .  A
C1782      C1830   1.487       .  S
O1783      C1811   1.281       .  A
O1783     Mg1785   2.356       .  S
O1784     Mg1816   2.279       .  S
Mg1785     O1791   2.076       .  S
Mg1785     O1799   2.216       .  S
Mg1785     O1787   2.285       .  S
C1786      O1824   1.276       .  A
C1786      O1792   1.269       .  A
O1787      C1794   1.274       .  A
H1788      C1801   1.081       .  S
C1789      O1804   1.272       .  A
C1789      H1814   1.081       .  S
C1789      O1803   1.234       .  S
O1790      C1813   1.282       .  A
O1791     Mg1805   2.141       .  S
O1792     Mg1822   2.249       .  S
C1793      O1806   1.276       .  A
C1793      O1798   1.280       .  A
C1793      C3370   1.469       .  S
C1794      O1821   1.277       .  A
Mg1795     O1802   2.339       .  S
Mg1795     O1803   2.174       .  S
Mg1795     O1796   2.255       .  S
Mg1795     O1797   2.290       .  S
Mg1795     O1824   2.318       .  S
O1797      C1801   1.264       .  A
O1798     Mg1805   2.344       .  S
O1799      C1818   1.264       .  A
O1800      C1820   1.274       .  A
O1800     Mg1816   2.326       .  S
O1802     Mg1816   2.277       .  S
O1802      C1813   1.267       .  A
O1803     Mg1822   2.179       .  S
O1804     Mg1816   2.326       .  S
Mg1805     O1821   2.281       .  S
O1806     Mg1822   2.233       .  S
H1807      C1812   1.081       .  S
O1808     Mg1816   2.252       .  S
O1808      C1811   1.271       .  A
H1809      C1811   1.082       .  S
H1810      C1813   1.082       .  S
O1815     Mg1822   2.254       .  S
C1818      O1823   1.275       .  A
O1819      C1820   1.267       .  A
C1820      C4422   1.473       .  S
O1825     Mg1827   2.163       .  S
O1825     Mg1833   2.127       .  S
O1825      C1860   1.243       .  S
C1826      O1839   1.257       .  A
C1826      O1863   1.259       .  A
C1826      H1865   1.082       .  S
Mg1827     O1856   2.236       .  S
Mg1827     O1871   2.375       .  S
Mg1827     O1867   2.305       .  S
Mg1827     O1838   2.366       .  S
O1828     Mg1870   2.170       .  S
O1828     Mg1853   2.117       .  S
O1828      C1849   1.230       .  S
O1829      C1860   1.278       .  A
O1829     Mg1853   2.319       .  S
C1830      O1832   1.263       .  A
C1830      O1844   1.260       .  A
O1831      C1859   1.276       .  A
O1831     Mg1833   2.330       .  S
O1832     Mg1864   2.298       .  S
Mg1833     O1839   2.130       .  S
Mg1833     O1847   2.154       .  S
Mg1833     O1835   2.289       .  S
C1834      O1872   1.267       .  A
C1834      O1840   1.273       .  A
O1835      C1842   1.273       .  A
H1836      C1849   1.081       .  S
C1837      O1852   1.273       .  A
C1837      H1862   1.081       .  S
C1837      O1851   1.235       .  S
O1838      C1861   1.277       .  A
O1839     Mg1853   2.187       .  S
O1840     Mg1870   2.257       .  S
C1841      O1854   1.279       .  A
C1841      O1846   1.283       .  A
C1842      O1869   1.277       .  A
C1842      C2540   1.477       .  S
Mg1843     O1850   2.297       .  S
Mg1843     O1851   2.177       .  S
Mg1843     O1844   2.229       .  S
Mg1843     O1845   2.279       .  S
Mg1843     O1872   2.215       .  S
O1845      C1849   1.263       .  A
O1846     Mg1853   2.336       .  S
O1847      C1866   1.260       .  A
O1848      C1868   1.269       .  A
O1848     Mg1864   2.259       .  S
O1850     Mg1864   2.266       .  S
O1850      C1861   1.263       .  A
O1851     Mg1870   2.174       .  S
O1852     Mg1864   2.327       .  S
Mg1853     O1869   2.306       .  S
O1854     Mg1870   2.269       .  S
H1855      C1860   1.081       .  S
O1856     Mg1864   2.233       .  S
O1856      C1859   1.268       .  A
H1857      C1859   1.082       .  S
H1858      C1861   1.083       .  S
O1863     Mg1870   2.270       .  S
C1866      O1871   1.280       .  A
C1866      C2588   1.464       .  S
O1867      C1868   1.274       .  A
C1868      C4426   1.463       .  S
O1873     Mg1875   2.148       .  S
O1873     Mg1881   2.119   1_455  S
O1873      C1908   1.240   1_455  S
C1874      O1887   1.257       .  A
C1874      O1911   1.259       .  A
C1874      H1913   1.082       .  S
Mg1875     O1904   2.215       .  S
Mg1875     O1919   2.357       .  S
Mg1875     O1915   2.258       .  S
Mg1875     O1886   2.375       .  S
O1876     Mg1918   2.169       .  S
O1876     Mg1901   2.135       .  S
O1876      C1897   1.230       .  S
O1877      C1908   1.274       .  A
O1877     Mg1901   2.302       .  S
C1878      O1880   1.264       .  A
C1878      O1892   1.261       .  A
C1878      C1930   1.482       .  S
O1879      C1907   1.278       .  A
O1879     Mg1881   2.337   1_455  S
O1880     Mg1912   2.311       .  S
Mg1881     O1887   2.129       .  S
Mg1881     O1895   2.165   1_655  S
Mg1881     O1883   2.285       .  S
C1882      O1920   1.272       .  A
C1882      O1888   1.272       .  A
C1882      C1974   1.482       .  S
O1883      C1890   1.273       .  A
H1884      C1897   1.081       .  S
C1885      O1900   1.275       .  A
C1885      H1910   1.081       .  S
C1885      O1899   1.235   1_455  S
O1886      C1909   1.279       .  A
O1887     Mg1901   2.195       .  S
O1888     Mg1918   2.272       .  S
C1889      O1902   1.274       .  A
C1889      O1894   1.282       .  A
C1890      O1917   1.280       .  A
Mg1891     O1898   2.329   1_655  S
Mg1891     O1899   2.161       .  S
Mg1891     O1892   2.215   1_655  S
Mg1891     O1893   2.290       .  S
Mg1891     O1920   2.287       .  S
O1893      C1897   1.264       .  A
O1894     Mg1901   2.343       .  S
O1895      C1914   1.260       .  A
O1896      C1916   1.277       .  A
O1896     Mg1912   2.327       .  S
O1898     Mg1912   2.271       .  S
O1898      C1909   1.265       .  A
O1899     Mg1918   2.162       .  S
O1900     Mg1912   2.342       .  S
Mg1901     O1917   2.306       .  S
O1902     Mg1918   2.211       .  S
H1903      C1908   1.081       .  S
O1904     Mg1912   2.241       .  S
O1904      C1907   1.271       .  A
H1905      C1907   1.082       .  S
H1906      C1909   1.082       .  S
O1911     Mg1918   2.267       .  S
C1914      O1919   1.275       .  A
O1915      C1916   1.268       .  A
C1916      C3942   1.469       .  S
O1921     Mg1923   2.140       .  S
O1921     Mg1929   2.115       .  S
O1921      C1956   1.240       .  S
C1922      O1935   1.258       .  A
C1922      O1959   1.260       .  A
C1922      H1961   1.082       .  S
Mg1923     O1952   2.205       .  S
Mg1923     O1967   2.342       .  S
Mg1923     O1963   2.275       .  S
Mg1923     O1934   2.375       .  S
O1924     Mg1966   2.173       .  S
O1924     Mg1949   2.149       .  S
O1924      C1945   1.231       .  S
O1925      C1956   1.274       .  A
O1925     Mg1949   2.303       .  S
C1926      O1928   1.262       .  A
C1926      O1940   1.262       .  A
C1926      C1978   1.480   1_455  S
O1927      C1955   1.278       .  A
O1927     Mg1929   2.344       .  S
O1928     Mg1960   2.297       .  S
Mg1929     O1935   2.137       .  S
Mg1929     O1943   2.184       .  S
Mg1929     O1931   2.270       .  S
C1930      O1968   1.271       .  A
C1930      O1936   1.273       .  A
O1931      C1938   1.272       .  A
H1932      C1945   1.081       .  S
C1933      O1948   1.274       .  A
C1933      H1958   1.081       .  S
C1933      O1947   1.235       .  S
O1934      C1957   1.279       .  A
O1935     Mg1949   2.206       .  S
O1936     Mg1966   2.269       .  S
C1937      O1950   1.275       .  A
C1937      O1942   1.283       .  A
C1937      C3946   1.465       .  S
C1938      O1965   1.283       .  A
C1938      C2444   1.479       .  S
Mg1939     O1946   2.311       .  S
Mg1939     O1947   2.169       .  S
Mg1939     O1940   2.219       .  S
Mg1939     O1941   2.292       .  S
Mg1939     O1968   2.279       .  S
O1941      C1945   1.265       .  A
O1942     Mg1949   2.352       .  S
O1943      C1962   1.260       .  A
O1944      C1964   1.271       .  A
O1944     Mg1960   2.285       .  S
O1946     Mg1960   2.270       .  S
O1946      C1957   1.266       .  A
O1947     Mg1966   2.166       .  S
O1948     Mg1960   2.334       .  S
Mg1949     O1965   2.336       .  S
O1950     Mg1966   2.217       .  S
H1951      C1956   1.081       .  S
O1952     Mg1960   2.227       .  S
O1952      C1955   1.270       .  A
H1953      C1955   1.082       .  S
H1954      C1957   1.082       .  S
O1959     Mg1966   2.268       .  S
C1962      O1967   1.274       .  A
C1962      C2321   1.454       .  S
O1963      C1964   1.268       .  A
C1964      C3514   1.458       .  S
O1969     Mg1971   2.142       .  S
O1969     Mg1977   2.126       .  S
O1969      C2004   1.243       .  S
C1970      O1983   1.257       .  A
C1970      O2007   1.258       .  A
C1970      H2009   1.082       .  S
Mg1971     O2000   2.228       .  S
Mg1971     O2015   2.349       .  S
Mg1971     O2011   2.250       .  S
Mg1971     O1982   2.370       .  S
O1972     Mg2014   2.172       .  S
O1972     Mg1997   2.129       .  S
O1972      C1993   1.231       .  S
O1973      C2004   1.276       .  A
O1973     Mg1997   2.304       .  S
C1974      O1976   1.264       .  A
C1974      O1988   1.261       .  A
O1975      C2003   1.276       .  A
O1975     Mg1977   2.321       .  S
O1976     Mg2008   2.304       .  S
Mg1977     O1983   2.130       .  S
Mg1977     O1991   2.179       .  S
Mg1977     O1979   2.271       .  S
C1978      O2016   1.270       .  A
C1978      O1984   1.274       .  A
O1979      C1986   1.272       .  A
H1980      C1993   1.081       .  S
C1981      O1996   1.278       .  A
C1981      H2006   1.081       .  S
C1981      O1995   1.237       .  S
O1982      C2005   1.277       .  A
O1983     Mg1997   2.192       .  S
O1984     Mg2014   2.267       .  S
C1985      O1998   1.283       .  A
C1985      O1990   1.281       .  A
C1985      C3510   1.473       .  S
C1986      O2013   1.277       .  A
Mg1987     O1994   2.329       .  S
Mg1987     O1995   2.176       .  S
Mg1987     O1988   2.226       .  S
Mg1987     O1989   2.289       .  S
Mg1987     O2016   2.273       .  S
O1989      C1993   1.265       .  A
O1990     Mg1997   2.325       .  S
O1991      C2010   1.262       .  A
O1992      C2012   1.280       .  A
O1992     Mg2008   2.342       .  S
O1994     Mg2008   2.268       .  S
O1994      C2005   1.263       .  A
O1995     Mg2014   2.198       .  S
O1996     Mg2008   2.353       .  S
Mg1997     O2013   2.308       .  S
O1998     Mg2014   2.288       .  S
H1999      C2004   1.081       .  S
O2000     Mg2008   2.228       .  S
O2000      C2003   1.270       .  A
H2001      C2003   1.082       .  S
H2002      C2005   1.082       .  S
O2007     Mg2014   2.271       .  S
C2010      O2015   1.274       .  A
O2011      C2012   1.268       .  A
O2017     Mg2019   2.151       .  S
O2017     Mg2025   2.123   1_556  S
O2017      C2052   1.242   1_556  S
C2018      O2031   1.259       .  A
C2018      O2055   1.261       .  A
C2018      H2057   1.082       .  S
Mg2019     O2048   2.207       .  S
Mg2019     O2063   2.404       .  S
Mg2019     O2059   2.317       .  S
Mg2019     O2030   2.393       .  S
O2020     Mg2062   2.162       .  S
O2020     Mg2045   2.121       .  S
O2020      C2041   1.229       .  S
O2021      C2052   1.276       .  A
O2021     Mg2045   2.307       .  S
C2022      O2024   1.262       .  A
C2022      O2036   1.269       .  A
C2022      C2070   1.489       .  S
O2023      C2051   1.276       .  A
O2023     Mg2025   2.345   1_556  S
O2024     Mg2056   2.274       .  S
Mg2025     O2031   2.144       .  S
Mg2025     O2039   2.170   1_554  S
Mg2025     O2027   2.286       .  S
C2026      O2064   1.275       .  A
C2026      O2032   1.274       .  A
C2026      C2118   1.483       .  S
O2027      C2034   1.272       .  A
H2028      C2041   1.081       .  S
C2029      O2044   1.273       .  A
C2029      H2054   1.081       .  S
C2029      O2043   1.235   1_556  S
O2030      C2053   1.284       .  A
O2031     Mg2045   2.201       .  S
O2032     Mg2062   2.269       .  S
C2033      O2046   1.283       .  A
C2033      O2038   1.279       .  A
C2033      C4134   1.475       .  S
C2034      O2061   1.275       .  A
C2034      C4289   1.468       .  S
Mg2035     O2042   2.336   1_554  S
Mg2035     O2043   2.187       .  S
Mg2035     O2036   2.255   1_554  S
Mg2035     O2037   2.284       .  S
Mg2035     O2064   2.300       .  S
O2037      C2041   1.262       .  A
O2038     Mg2045   2.318       .  S
O2039      C2058   1.261       .  A
O2040      C2060   1.268       .  A
O2040     Mg2056   2.277       .  S
O2042     Mg2056   2.272       .  S
O2042      C2053   1.268       .  A
O2043     Mg2062   2.196       .  S
O2044     Mg2056   2.326       .  S
Mg2045     O2061   2.281       .  S
O2046     Mg2062   2.295       .  S
H2047      C2052   1.081       .  S
O2048     Mg2056   2.235       .  S
O2048      C2051   1.266       .  A
H2049      C2051   1.082       .  S
H2050      C2053   1.082       .  S
O2055     Mg2062   2.273       .  S
C2058      O2063   1.282       .  A
C2058      C4268   1.473       .  S
O2059      C2060   1.272       .  A
C2060      C3706   1.471       .  S
O2065     Mg2067   2.158       .  S
O2065     Mg2073   2.109       .  S
O2065      C2100   1.241       .  S
C2066      O2079   1.258       .  A
C2066      O2103   1.259       .  A
C2066      H2105   1.082       .  S
Mg2067     O2096   2.207       .  S
Mg2067     O2111   2.380       .  S
Mg2067     O2107   2.269       .  S
Mg2067     O2078   2.373       .  S
O2068     Mg2110   2.156       .  S
O2068     Mg2093   2.104       .  S
O2068      C2089   1.229       .  S
O2069      C2100   1.275       .  A
O2069     Mg2093   2.311       .  S
C2070      O2072   1.267       .  A
C2070      O2084   1.264       .  A
O2071      C2099   1.280       .  A
O2071     Mg2073   2.359       .  S
O2072     Mg2104   2.300       .  S
Mg2073     O2079   2.127       .  S
Mg2073     O2087   2.171       .  S
Mg2073     O2075   2.275       .  S
C2074      O2112   1.271       .  A
C2074      O2080   1.270       .  A
C2074      C2122   1.461   1_556  S
O2075      C2082   1.272       .  A
H2076      C2089   1.081       .  S
C2077      O2092   1.271       .  A
C2077      H2102   1.081       .  S
C2077      O2091   1.233       .  S
O2078      C2101   1.279       .  A
O2079     Mg2093   2.203       .  S
O2080     Mg2110   2.244       .  S
C2081      O2094   1.276       .  A
C2081      O2086   1.281       .  A
C2082      O2109   1.276       .  A
Mg2083     O2090   2.304       .  S
Mg2083     O2091   2.171       .  S
Mg2083     O2084   2.242       .  S
Mg2083     O2085   2.277       .  S
Mg2083     O2112   2.235       .  S
O2085      C2089   1.261       .  A
O2086     Mg2093   2.339       .  S
O2087      C2106   1.258       .  A
O2088      C2108   1.273       .  A
O2088     Mg2104   2.304       .  S
O2090     Mg2104   2.267       .  S
O2090      C2101   1.265       .  A
O2091     Mg2110   2.165       .  S
O2092     Mg2104   2.321       .  S
Mg2093     O2109   2.274       .  S
O2094     Mg2110   2.229       .  S
H2095      C2100   1.081       .  S
O2096     Mg2104   2.253       .  S
O2096      C2099   1.270       .  A
H2097      C2099   1.082       .  S
H2098      C2101   1.082       .  S
O2103     Mg2110   2.261       .  S
C2106      O2111   1.276       .  A
O2107      C2108   1.270       .  A
C2108      C3702   1.468       .  S
O2113     Mg2115   2.161       .  S
O2113     Mg2121   2.119       .  S
O2113      C2148   1.242       .  S
C2114      O2151   1.259       .  A
C2114      H2153   1.081       .  S
C2114      O2127   1.229       .  S
Mg2115     O2144   2.228       .  S
Mg2115     O2159   2.316       .  S
Mg2115     O2155   2.276       .  S
Mg2115     O2126   2.357       .  S
O2116     Mg2158   2.160       .  S
O2116     Mg2141   2.127       .  S
O2116      C2137   1.230       .  S
O2117      C2148   1.276       .  A
O2117     Mg2141   2.312       .  S
C2118      O2120   1.262       .  A
C2118      O2132   1.258       .  A
O2119      C2147   1.278       .  A
O2119     Mg2121   2.330       .  S
O2120     Mg2152   2.309       .  S
Mg2121     O2127   2.080       .  S
Mg2121     O2135   2.202       .  S
Mg2121     O2123   2.272       .  S
C2122      O2160   1.264       .  A
C2122      O2128   1.276       .  A
O2123      C2130   1.272       .  A
H2124      C2137   1.081       .  S
C2125      O2140   1.275       .  A
C2125      H2150   1.081       .  S
C2125      O2139   1.236       .  S
O2126      C2149   1.274       .  A
O2127     Mg2141   2.122       .  S
O2128     Mg2158   2.283       .  S
C2129      O2142   1.283       .  A
C2129      O2134   1.285       .  A
C2130      O2157   1.278       .  A
C2130      C3404   1.470       .  S
Mg2131     O2138   2.282       .  S
Mg2131     O2139   2.175       .  S
Mg2131     O2132   2.221       .  S
Mg2131     O2133   2.277       .  S
Mg2131     O2160   2.192       .  S
O2133      C2137   1.263       .  A
O2134     Mg2141   2.358       .  S
O2135      C2154   1.262       .  A
O2136      C2156   1.273       .  A
O2136     Mg2152   2.277       .  S
O2138     Mg2152   2.264       .  S
O2138      C2149   1.262       .  A
O2139     Mg2158   2.174       .  S
O2140     Mg2152   2.338       .  S
Mg2141     O2157   2.301       .  S
O2142     Mg2158   2.285       .  S
H2143      C2148   1.081       .  S
O2144     Mg2152   2.217       .  S
O2144      C2147   1.271       .  A
H2145      C2147   1.082       .  S
H2146      C2149   1.083       .  S
O2151     Mg2158   2.259       .  S
C2154      O2159   1.270       .  A
C2154      C3329   1.454       .  S
O2155      C2156   1.269       .  A
C2156      C4138   1.457       .  S
O2161     Mg2163   2.147       .  S
O2161     Mg2169   2.113       .  S
O2161      C2196   1.240       .  S
C2162      O2199   1.261       .  A
C2162      H2201   1.081       .  S
C2162      O2175   1.231       .  S
Mg2163     O2192   2.207       .  S
Mg2163     O2207   2.361       .  S
Mg2163     O2203   2.269       .  S
Mg2163     O2174   2.373       .  S
O2164     Mg2206   2.145       .  S
O2164     Mg2189   2.117       .  S
O2164      C2185   1.229       .  S
O2165      C2196   1.274       .  A
O2165     Mg2189   2.304       .  S
C2166      O2168   1.267       .  A
C2166      O2180   1.262       .  A
C2166      C2214   1.489   1_545  S
O2167      C2195   1.282       .  A
O2167     Mg2169   2.359       .  S
O2168     Mg2200   2.305       .  S
Mg2169     O2175   2.079       .  S
Mg2169     O2183   2.227       .  S
Mg2169     O2171   2.299       .  S
C2170      O2208   1.269       .  A
C2170      O2176   1.271       .  A
C2170      C2266   1.460   1_556  S
O2171      C2178   1.277       .  A
H2172      C2185   1.081       .  S
C2173      O2188   1.271       .  A
C2173      H2198   1.081       .  S
C2173      O2187   1.233       .  S
O2174      C2197   1.279       .  A
O2175     Mg2189   2.137       .  S
O2176     Mg2206   2.255       .  S
C2177      O2190   1.275       .  A
C2177      O2182   1.283       .  A
C2177      C4186   1.469       .  S
C2178      O2205   1.277       .  A
C2178      C2369   1.469       .  S
Mg2179     O2186   2.300       .  S
Mg2179     O2187   2.168       .  S
Mg2179     O2180   2.234       .  S
Mg2179     O2181   2.278       .  S
Mg2179     O2208   2.230       .  S
O2181      C2185   1.262       .  A
O2182     Mg2189   2.359       .  S
O2183      C2202   1.265       .  A
O2184      C2204   1.272       .  A
O2184     Mg2200   2.304       .  S
O2186     Mg2200   2.262       .  S
O2186      C2197   1.265       .  A
O2187     Mg2206   2.157       .  S
O2188     Mg2200   2.322       .  S
Mg2189     O2205   2.282       .  S
O2190     Mg2206   2.225       .  S
H2191      C2196   1.081       .  S
O2192     Mg2200   2.259       .  S
O2192      C2195   1.272       .  A
H2193      C2195   1.082       .  S
H2194      C2197   1.082       .  S
O2199     Mg2206   2.252       .  S
C2202      O2207   1.276       .  A
C2202      C2417   1.471       .  S
O2203      C2204   1.270       .  A
O2209     Mg2211   2.125       .  S
O2209     Mg2217   2.123       .  S
O2209      C2244   1.242   1_556  S
C2210      O2223   1.258       .  A
C2210      O2247   1.260       .  A
C2210      H2249   1.082       .  S
Mg2211     O2240   2.210       .  S
Mg2211     O2255   2.371       .  S
Mg2211     O2251   2.287       .  S
Mg2211     O2222   2.391       .  S
O2212     Mg2254   2.166       .  S
O2212     Mg2237   2.127       .  S
O2212      C2233   1.229       .  S
O2213      C2244   1.275       .  A
O2213     Mg2237   2.302       .  S
C2214      O2216   1.262       .  A
C2214      O2228   1.270       .  A
O2215      C2243   1.276       .  A
O2215     Mg2217   2.340       .  S
O2216     Mg2248   2.268       .  S
Mg2217     O2223   2.140   1_556  S
Mg2217     O2231   2.191       .  S
Mg2217     O2219   2.257   1_556  S
C2218      O2256   1.276       .  A
C2218      O2224   1.273       .  A
C2218      C2262   1.487       .  S
O2219      C2226   1.270       .  A
H2220      C2233   1.081       .  S
C2221      O2236   1.273       .  A
C2221      H2246   1.081       .  S
C2221      O2235   1.235   1_556  S
O2222      C2245   1.283       .  A
O2223     Mg2237   2.203       .  S
O2224     Mg2254   2.266       .  S
C2225      O2238   1.281       .  A
C2225      O2230   1.280       .  A
C2225      C3222   1.471       .  S
C2226      O2253   1.277       .  A
Mg2227     O2234   2.338   1_554  S
Mg2227     O2235   2.186       .  S
Mg2227     O2228   2.260   1_554  S
Mg2227     O2229   2.287       .  S
Mg2227     O2256   2.310       .  S
O2229      C2233   1.262       .  A
O2230     Mg2237   2.317       .  S
O2231      C2250   1.262       .  A
O2232      C2252   1.269       .  A
O2232     Mg2248   2.283       .  S
O2234     Mg2248   2.276       .  S
O2234      C2245   1.267       .  A
O2235     Mg2254   2.198       .  S
O2236     Mg2248   2.327       .  S
Mg2237     O2253   2.300       .  S
O2238     Mg2254   2.280       .  S
H2239      C2244   1.081   1_556  S
O2240     Mg2248   2.231       .  S
O2240      C2243   1.267       .  A
H2241      C2243   1.082       .  S
H2242      C2245   1.082       .  S
O2247     Mg2254   2.270       .  S
C2250      O2255   1.279       .  A
O2251      C2252   1.268       .  A
O2257     Mg2259   2.158       .  S
O2257     Mg2265   2.119   1_565  S
O2257      C2292   1.241   1_565  S
C2258      O2295   1.260       .  A
C2258      H2297   1.081       .  S
C2258      O2271   1.229       .  S
Mg2259     O2288   2.212       .  S
Mg2259     O2303   2.347       .  S
Mg2259     O2299   2.295       .  S
Mg2259     O2270   2.367       .  S
O2260     Mg2302   2.161       .  S
O2260     Mg2285   2.126       .  S
O2260      C2281   1.229       .  S
O2261      C2292   1.274       .  A
O2261     Mg2285   2.305       .  S
C2262      O2264   1.263       .  A
C2262      O2276   1.257       .  A
O2263      C2291   1.279       .  A
O2263     Mg2265   2.346   1_565  S
O2264     Mg2296   2.324       .  S
Mg2265     O2271   2.080       .  S
Mg2265     O2279   2.208   1_545  S
Mg2265     O2267   2.305       .  S
C2266      O2304   1.265       .  A
C2266      O2272   1.275       .  A
O2267      C2274   1.276       .  A
H2268      C2281   1.081       .  S
C2269      O2284   1.273       .  A
C2269      H2294   1.081       .  S
C2269      O2283   1.235   1_565  S
O2270      C2293   1.278       .  A
O2271     Mg2285   2.125       .  S
O2272     Mg2302   2.284       .  S
C2273      O2286   1.279       .  A
C2273      O2278   1.282       .  A
C2273      C4182   1.469       .  S
C2274      O2301   1.277       .  A
C2274      C2465   1.473       .  S
Mg2275     O2282   2.287   1_545  S
Mg2275     O2283   2.173       .  S
Mg2275     O2276   2.214   1_545  S
Mg2275     O2277   2.274       .  S
Mg2275     O2304   2.200       .  S
O2277      C2281   1.261       .  A
O2278     Mg2285   2.331       .  S
O2279      C2298   1.264       .  A
O2280      C2300   1.270       .  A
O2280     Mg2296   2.265       .  S
O2282     Mg2296   2.256       .  S
O2282      C2293   1.265       .  A
O2283     Mg2302   2.157       .  S
O2284     Mg2296   2.331       .  S
Mg2285     O2301   2.289       .  S
O2286     Mg2302   2.263       .  S
H2287      C2292   1.081   1_565  S
O2288     Mg2296   2.234       .  S
O2288      C2291   1.271       .  A
H2289      C2291   1.082       .  S
H2290      C2293   1.082       .  S
O2295     Mg2302   2.260       .  S
C2298      O2303   1.275       .  A
C2298      C2513   1.462       .  S
O2299      C2300   1.272       .  A
C2300      C3226   1.459       .  S
O2305     Mg2307   2.178       .  S
O2305     Mg2313   2.184       .  S
O2305      C2340   1.235       .  S
C2306      O2319   1.264       .  A
C2306      O2343   1.277       .  A
C2306      H2345   1.083       .  S
Mg2307     O2336   2.174       .  S
Mg2307     O2351   2.288       .  S
Mg2307     O2347   2.282       .  S
Mg2307     O2318   2.273       .  S
O2308     Mg2350   2.212       .  S
O2308     Mg2333   2.221       .  S
O2308      C2329   1.268       .  A
O2309      C2340   1.273       .  A
O2309     Mg2333   2.332       .  S
C2310      O2312   1.278       .  A
C2310      O2324   1.271       .  A
C2310      C3857   1.474       .  S
O2311      C2339   1.261       .  A
O2311     Mg2313   2.273       .  S
O2312     Mg2344   2.313       .  S
Mg2313     O2319   2.288       .  S
Mg2313     O2327   2.198       .  S
Mg2313     O2315   2.220       .  S
C2314      O2352   1.258       .  A
C2314      O2320   1.273       .  A
C2314      C3761   1.461       .  S
O2315      C2322   1.259       .  A
H2316      C2329   1.082       .  S
C2317      O2332   1.278       .  A
C2317      H2342   1.081       .  S
C2317      O2331   1.243       .  S
O2318      C2341   1.257       .  A
O2319     Mg2333   2.267       .  S
O2320     Mg2350   2.357       .  S
C2321      O2334   1.269       .  A
C2321      O2326   1.271       .  A
C2322      O2349   1.262       .  A
C2322      C2442   1.487       .  S
Mg2323     O2330   2.132       .  S
Mg2323     O2331   2.106       .  S
Mg2323     O2324   2.269       .  S
Mg2323     O2325   2.345       .  S
Mg2323     O2352   2.173       .  S
O2325      C2329   1.277       .  A
O2326     Mg2333   2.266       .  S
O2327      C2346   1.266       .  A
O2328      C2348   1.283       .  A
O2328     Mg2344   2.337       .  S
O2330     Mg2344   2.193       .  S
O2330      C2341   1.255       .  A
O2331     Mg2350   2.166       .  S
O2332     Mg2344   2.321       .  S
Mg2333     O2349   2.317       .  S
O2334     Mg2350   2.278       .  S
H2335      C2340   1.081       .  S
O2336     Mg2344   2.125       .  S
O2336      C2339   1.229       .  S
H2337      C2339   1.081       .  S
H2338      C2341   1.082       .  S
O2343     Mg2350   2.367       .  S
C2346      O2351   1.277       .  A
C2346      C2394   1.463       .  S
O2347      C2348   1.283       .  A
C2348      C2610   1.475       .  S
O2353     Mg2355   2.169       .  S
O2353     Mg2361   2.171       .  S
O2353      C2388   1.234       .  S
C2354      O2367   1.264       .  A
C2354      O2391   1.278       .  A
C2354      H2393   1.082       .  S
Mg2355     O2384   2.158       .  S
Mg2355     O2399   2.233       .  S
Mg2355     O2395   2.231       .  S
Mg2355     O2366   2.264       .  S
O2356     Mg2398   2.217       .  S
O2356     Mg2381   2.248       .  S
O2356      C2377   1.270       .  A
O2357      C2388   1.273       .  A
O2357     Mg2381   2.327       .  S
C2358      O2360   1.274       .  A
C2358      O2372   1.275       .  A
O2359      C2387   1.263       .  A
O2359     Mg2361   2.281       .  S
O2360     Mg2392   2.256       .  S
Mg2361     O2367   2.305       .  S
Mg2361     O2375   2.234       .  S
Mg2361     O2363   2.236       .  S
C2362      O2400   1.262       .  A
C2362      O2368   1.278       .  A
O2363      C2370   1.261       .  A
H2364      C2377   1.082       .  S
C2365      O2380   1.277       .  A
C2365      H2390   1.081       .  S
C2365      O2379   1.243       .  S
O2366      C2389   1.258       .  A
O2367     Mg2381   2.261       .  S
O2368     Mg2398   2.377       .  S
C2369      O2382   1.272       .  A
C2369      O2374   1.274       .  A
C2370      O2397   1.267       .  A
C2370      C2418   1.487       .  S
Mg2371     O2378   2.129       .  S
Mg2371     O2379   2.125       .  S
Mg2371     O2372   2.293       .  S
Mg2371     O2373   2.341       .  S
Mg2371     O2400   2.173       .  S
O2373      C2377   1.278       .  A
O2374     Mg2381   2.305       .  S
O2375      C2394   1.269       .  A
O2376      C2396   1.280       .  A
O2376     Mg2392   2.344       .  S
O2378     Mg2392   2.191       .  S
O2378      C2389   1.257       .  A
O2379     Mg2398   2.159       .  S
O2380     Mg2392   2.314       .  S
Mg2381     O2397   2.305       .  S
O2382     Mg2398   2.277       .  S
H2383      C2388   1.081       .  S
O2384     Mg2392   2.104       .  S
O2384      C2387   1.230       .  S
H2385      C2387   1.081       .  S
H2386      C2389   1.082       .  S
O2391     Mg2398   2.372       .  S
C2394      O2399   1.268       .  A
O2395      C2396   1.276       .  A
C2396      C2634   1.467       .  S
O2401     Mg2403   2.209       .  S
O2401     Mg2409   2.187       .  S
O2401      C2436   1.236       .  S
C2402      O2415   1.265       .  A
C2402      O2439   1.280       .  A
C2402      H2441   1.082       .  S
Mg2403     O2432   2.168       .  S
Mg2403     O2447   2.266       .  S
Mg2403     O2443   2.299       .  S
Mg2403     O2414   2.271       .  S
O2404     Mg2446   2.229       .  S
O2404     Mg2429   2.229       .  S
O2404      C2425   1.269       .  A
O2405      C2436   1.275       .  A
O2405     Mg2429   2.336       .  S
C2406      O2408   1.277       .  A
C2406      O2420   1.274       .  A
C2406      C2993   1.475       .  S
O2407      C2435   1.264       .  A
O2407     Mg2409   2.290       .  S
O2408     Mg2440   2.304       .  S
Mg2409     O2415   2.340       .  S
Mg2409     O2423   2.303       .  S
Mg2409     O2411   2.262       .  S
C2410      O2448   1.261       .  A
C2410      O2416   1.280       .  A
C2410      C2945   1.469       .  S
O2411      C2418   1.269       .  A
H2412      C2425   1.082       .  S
C2413      O2428   1.277       .  A
C2413      H2438   1.081       .  S
C2413      O2427   1.243       .  S
O2414      C2437   1.260       .  A
O2415     Mg2429   2.274       .  S
O2416     Mg2446   2.388       .  S
C2417      O2430   1.273       .  A
C2417      O2422   1.271       .  A
C2418      O2445   1.261       .  A
Mg2419     O2426   2.135       .  S
Mg2419     O2427   2.128       .  S
Mg2419     O2420   2.289       .  S
Mg2419     O2421   2.326       .  S
Mg2419     O2448   2.162       .  S
O2421      C2425   1.275       .  A
O2422     Mg2429   2.289       .  S
O2423      C2442   1.275       .  A
O2424      C2444   1.281       .  A
O2424     Mg2440   2.332       .  S
O2426     Mg2440   2.188       .  S
O2426      C2437   1.258       .  A
O2427     Mg2446   2.155       .  S
O2428     Mg2440   2.311       .  S
Mg2429     O2445   2.266       .  S
O2430     Mg2446   2.307       .  S
H2431      C2436   1.081       .  S
O2432     Mg2440   2.130       .  S
O2432      C2435   1.230       .  S
H2433      C2435   1.081       .  S
H2434      C2437   1.082       .  S
O2439     Mg2446   2.382       .  S
C2442      O2447   1.274       .  A
O2443      C2444   1.284       .  A
O2449     Mg2451   2.174       .  S
O2449     Mg2457   2.170       .  S
O2449      C2484   1.234       .  S
C2450      O2463   1.267       .  A
C2450      O2487   1.282       .  A
C2450      H2489   1.082       .  S
Mg2451     O2480   2.156       .  S
Mg2451     O2495   2.255       .  S
Mg2451     O2491   2.225       .  S
Mg2451     O2462   2.265       .  S
O2452     Mg2494   2.203       .  S
O2452     Mg2477   2.252       .  S
O2452      C2473   1.271       .  A
O2453      C2484   1.273       .  A
O2453     Mg2477   2.328       .  S
C2454      O2456   1.277       .  A
C2454      O2468   1.276       .  A
C2454      C3116   1.464       .  S
O2455      C2483   1.263       .  A
O2455     Mg2457   2.288       .  S
O2456     Mg2488   2.276       .  S
Mg2457     O2463   2.337       .  S
Mg2457     O2471   2.310       .  S
Mg2457     O2459   2.252       .  S
C2458      O2496   1.264       .  A
C2458      O2464   1.277       .  A
C2458      C3068   1.468       .  S
O2459      C2466   1.267       .  A
H2460      C2473   1.082       .  S
C2461      O2476   1.273       .  A
C2461      H2486   1.081       .  S
C2461      O2475   1.240       .  S
O2462      C2485   1.261       .  A
O2463     Mg2477   2.269       .  S
O2464     Mg2494   2.367       .  S
C2465      O2478   1.269       .  A
C2465      O2470   1.275       .  A
C2466      O2493   1.266       .  A
C2466      C2514   1.485   1_545  S
Mg2467     O2474   2.143       .  S
Mg2467     O2475   2.116       .  S
Mg2467     O2468   2.292       .  S
Mg2467     O2469   2.353       .  S
Mg2467     O2496   2.210       .  S
O2469      C2473   1.281       .  A
O2470     Mg2477   2.327       .  S
O2471      C2490   1.275       .  A
O2472      C2492   1.279       .  A
O2472     Mg2488   2.336       .  S
O2474     Mg2488   2.207       .  S
O2474      C2485   1.260       .  A
O2475     Mg2494   2.129       .  S
O2476     Mg2488   2.298       .  S
Mg2477     O2493   2.281       .  S
O2478     Mg2494   2.265       .  S
H2479      C2484   1.081       .  S
O2480     Mg2488   2.121       .  S
O2480      C2483   1.229       .  S
H2481      C2483   1.081       .  S
H2482      C2485   1.082       .  S
O2487     Mg2494   2.383       .  S
C2490      O2495   1.270       .  A
C2490      C2562   1.485       .  S
O2491      C2492   1.275       .  A
C2492      C2730   1.464       .  S
O2497     Mg2499   2.189       .  S
O2497     Mg2505   2.184       .  S
O2497      C2532   1.235       .  S
C2498      O2511   1.264       .  A
C2498      O2535   1.278       .  A
C2498      H2537   1.082       .  S
Mg2499     O2528   2.165       .  S
Mg2499     O2543   2.259       .  S
Mg2499     O2539   2.286       .  S
Mg2499     O2510   2.272       .  S
O2500     Mg2542   2.215       .  S
O2500     Mg2525   2.221       .  S
O2500      C2521   1.268       .  A
O2501      C2532   1.273       .  A
O2501     Mg2525   2.326       .  S
C2502      O2504   1.277       .  A
C2502      O2516   1.271       .  A
O2503      C2531   1.263       .  A
O2503     Mg2505   2.280       .  S
O2504     Mg2536   2.300       .  S
Mg2505     O2511   2.291       .  S
Mg2505     O2519   2.220       .  S
Mg2505     O2507   2.253       .  S
C2506      O2544   1.261       .  A
C2506      O2512   1.274       .  A
O2507      C2514   1.264       .  A
H2508      C2521   1.082       .  S
C2509      O2524   1.277       .  A
C2509      H2534   1.081       .  S
C2509      O2523   1.243       .  S
O2510      C2533   1.259       .  A
O2511     Mg2525   2.263       .  S
O2512     Mg2542   2.340       .  S
C2513      O2526   1.269       .  A
C2513      O2518   1.269       .  A
C2514      O2541   1.262       .  A
Mg2515     O2522   2.142       .  S
Mg2515     O2523   2.127       .  S
Mg2515     O2516   2.269       .  S
Mg2515     O2517   2.338       .  S
Mg2515     O2544   2.179       .  S
O2517      C2521   1.276       .  A
O2518     Mg2525   2.270       .  S
O2519      C2538   1.268       .  A
O2520      C2540   1.283       .  A
O2520     Mg2536   2.338       .  S
O2522     Mg2536   2.196       .  S
O2522      C2533   1.257       .  A
O2523     Mg2542   2.149       .  S
O2524     Mg2536   2.315       .  S
Mg2525     O2541   2.278       .  S
O2526     Mg2542   2.290       .  S
H2527      C2532   1.081       .  S
O2528     Mg2536   2.116       .  S
O2528      C2531   1.230       .  S
H2529      C2531   1.081       .  S
H2530      C2533   1.082       .  S
O2535     Mg2542   2.369       .  S
C2538      O2543   1.273       .  A
C2538      C2586   1.462       .  S
O2539      C2540   1.281       .  A
O2545     Mg2547   2.166       .  S
O2545     Mg2553   2.169       .  S
O2545      C2580   1.235   1_565  S
C2546      O2559   1.264       .  A
C2546      O2583   1.277       .  A
C2546      H2585   1.082       .  S
Mg2547     O2576   2.175       .  S
Mg2547     O2591   2.271       .  S
Mg2547     O2587   2.231       .  S
Mg2547     O2558   2.265       .  S
O2548     Mg2590   2.206       .  S
O2548     Mg2573   2.230       .  S
O2548      C2569   1.270       .  A
O2549      C2580   1.274       .  A
O2549     Mg2573   2.336       .  S
C2550      O2552   1.279       .  A
C2550      O2564   1.269       .  A
O2551      C2579   1.262       .  A
O2551     Mg2553   2.279       .  S
O2552     Mg2584   2.308       .  S
Mg2553     O2559   2.291   1_565  S
Mg2553     O2567   2.213       .  S
Mg2553     O2555   2.224   1_565  S
C2554      O2592   1.257       .  A
C2554      O2560   1.272       .  A
O2555      C2562   1.259       .  A
H2556      C2569   1.082       .  S
C2557      O2572   1.275       .  A
C2557      H2582   1.081       .  S
C2557      O2571   1.241   1_565  S
O2558      C2581   1.256       .  A
O2559     Mg2573   2.259       .  S
O2560     Mg2590   2.357       .  S
C2561      O2574   1.268       .  A
C2561      O2566   1.276       .  A
C2561      C2706   1.460       .  S
C2562      O2589   1.266       .  A
Mg2563     O2570   2.119       .  S
Mg2563     O2571   2.103   1_565  S
Mg2563     O2564   2.249       .  S
Mg2563     O2565   2.343   1_565  S
Mg2563     O2592   2.166   1_565  S
O2565      C2569   1.278       .  A
O2566     Mg2573   2.310       .  S
O2567      C2586   1.267       .  A
O2568      C2588   1.281       .  A
O2568     Mg2584   2.337       .  S
O2570     Mg2584   2.199       .  S
O2570      C2581   1.254       .  A
O2571     Mg2590   2.152       .  S
O2572     Mg2584   2.310       .  S
Mg2573     O2589   2.322       .  S
O2574     Mg2590   2.244       .  S
H2575      C2580   1.081       .  S
O2576     Mg2584   2.130       .  S
O2576      C2579   1.229       .  S
H2577      C2579   1.081       .  S
H2578      C2581   1.082       .  S
O2583     Mg2590   2.365       .  S
C2586      O2591   1.273       .  A
O2587      C2588   1.278       .  A
O2593     Mg2595   2.150       .  S
O2593     Mg2601   2.126       .  S
O2593      C2628   1.242       .  S
C2594      O2607   1.258       .  A
C2594      O2631   1.260       .  A
C2594      H2633   1.082       .  S
Mg2595     O2624   2.219       .  S
Mg2595     O2639   2.382       .  S
Mg2595     O2635   2.304       .  S
Mg2595     O2606   2.389       .  S
O2596     Mg2638   2.170       .  S
O2596     Mg2621   2.129       .  S
O2596      C2617   1.229       .  S
O2597      C2628   1.276       .  A
O2597     Mg2621   2.311       .  S
C2598      O2600   1.263       .  A
C2598      O2612   1.269       .  A
C2598      C2694   1.490       .  S
O2599      C2627   1.276       .  A
O2599     Mg2601   2.336       .  S
O2600     Mg2632   2.275       .  S
Mg2601     O2607   2.133       .  S
Mg2601     O2615   2.163       .  S
Mg2601     O2603   2.266       .  S
C2602      O2640   1.275       .  A
C2602      O2608   1.272       .  A
C2602      C2646   1.486       .  S
O2603      C2610   1.271       .  A
H2604      C2617   1.081       .  S
C2605      O2620   1.273       .  A
C2605      H2630   1.081       .  S
C2605      O2619   1.234       .  S
O2606      C2629   1.282       .  A
O2607     Mg2621   2.196       .  S
O2608     Mg2638   2.256       .  S
C2609      O2622   1.280       .  A
C2609      O2614   1.281       .  A
C2609      C3654   1.471       .  S
C2610      O2637   1.278       .  A
Mg2611     O2618   2.340       .  S
Mg2611     O2619   2.188       .  S
Mg2611     O2612   2.269       .  S
Mg2611     O2613   2.288       .  S
Mg2611     O2640   2.305       .  S
O2613      C2617   1.263       .  A
O2614     Mg2621   2.327       .  S
O2615      C2634   1.260       .  A
O2616      C2636   1.272       .  A
O2616     Mg2632   2.289       .  S
O2618     Mg2632   2.272       .  S
O2618      C2629   1.266       .  A
O2619     Mg2638   2.200       .  S
O2620     Mg2632   2.328       .  S
Mg2621     O2637   2.318       .  S
O2622     Mg2638   2.276       .  S
H2623      C2628   1.081       .  S
O2624     Mg2632   2.237       .  S
O2624      C2627   1.267       .  A
H2625      C2627   1.082       .  S
H2626      C2629   1.082       .  S
O2631     Mg2638   2.271       .  S
C2634      O2639   1.279       .  A
O2635      C2636   1.270       .  A
C2636      C2842   1.471       .  S
O2641     Mg2643   2.164       .  S
O2641     Mg2649   2.116       .  S
O2641      C2676   1.242       .  S
C2642      O2655   1.257       .  A
C2642      O2679   1.258       .  A
C2642      H2681   1.082       .  S
Mg2643     O2672   2.222       .  S
Mg2643     O2687   2.328       .  S
Mg2643     O2683   2.286       .  S
Mg2643     O2654   2.357       .  S
O2644     Mg2686   2.164       .  S
O2644     Mg2669   2.119       .  S
O2644      C2665   1.231       .  S
O2645      C2676   1.277       .  A
O2645     Mg2669   2.318       .  S
C2646      O2648   1.264       .  A
C2646      O2660   1.256       .  A
O2647      C2675   1.279       .  A
O2647     Mg2649   2.344       .  S
O2648     Mg2680   2.329       .  S
Mg2649     O2655   2.136       .  S
Mg2649     O2663   2.189       .  S
Mg2649     O2651   2.282       .  S
C2650      O2688   1.264       .  A
C2650      O2656   1.272       .  A
C2650      C2698   1.456       .  S
O2651      C2658   1.274       .  A
H2652      C2665   1.081       .  S
C2653      O2668   1.272       .  A
C2653      H2678   1.081       .  S
C2653      O2667   1.235       .  S
O2654      C2677   1.275       .  A
O2655     Mg2669   2.198       .  S
O2656     Mg2686   2.258       .  S
C2657      O2670   1.275       .  A
C2657      O2662   1.283       .  A
C2657      C4042   1.465       .  S
C2658      O2685   1.279       .  A
Mg2659     O2666   2.274       .  S
Mg2659     O2667   2.165       .  S
Mg2659     O2660   2.209       .  S
Mg2659     O2661   2.279       .  S
Mg2659     O2688   2.198       .  S
O2661      C2665   1.263       .  A
O2662     Mg2669   2.360       .  S
O2663      C2682   1.261       .  A
O2664      C2684   1.271       .  A
O2664     Mg2680   2.260       .  S
O2666     Mg2680   2.262       .  S
O2666      C2677   1.263       .  A
O2667     Mg2686   2.146       .  S
O2668     Mg2680   2.327       .  S
Mg2669     O2685   2.299       .  S
O2670     Mg2686   2.213       .  S
H2671      C2676   1.081       .  S
O2672     Mg2680   2.231       .  S
O2672      C2675   1.271       .  A
H2673      C2675   1.082       .  S
H2674      C2677   1.083       .  S
O2679     Mg2686   2.268       .  S
C2682      O2687   1.272       .  A
O2683      C2684   1.270       .  A
C2684      C3658   1.456       .  S
O2689     Mg2691   2.152       .  S
O2689     Mg2697   2.113       .  S
O2689      C2724   1.242       .  S
C2690      O2703   1.256       .  A
C2690      O2727   1.258       .  A
C2690      H2729   1.082       .  S
Mg2691     O2720   2.206       .  S
Mg2691     O2735   2.370       .  S
Mg2691     O2731   2.263       .  S
Mg2691     O2702   2.371       .  S
O2692     Mg2734   2.160       .  S
O2692     Mg2717   2.103       .  S
O2692      C2713   1.229       .  S
O2693      C2724   1.276       .  A
O2693     Mg2717   2.311       .  S
C2694      O2696   1.265       .  A
C2694      O2708   1.264       .  A
O2695      C2723   1.278       .  A
O2695     Mg2697   2.349       .  S
O2696     Mg2728   2.295       .  S
Mg2697     O2703   2.127       .  S
Mg2697     O2711   2.170       .  S
Mg2697     O2699   2.268       .  S
C2698      O2736   1.269       .  A
C2698      O2704   1.273       .  A
O2699      C2706   1.270       .  A
H2700      C2713   1.081       .  S
C2701      O2716   1.273       .  A
C2701      H2726   1.081       .  S
C2701      O2715   1.235       .  S
O2702      C2725   1.278       .  A
O2703     Mg2717   2.195       .  S
O2704     Mg2734   2.261       .  S
C2705      O2718   1.282       .  A
C2705      O2710   1.280       .  A
C2705      C4038   1.472       .  S
C2706      O2733   1.274       .  A
Mg2707     O2714   2.303       .  S
Mg2707     O2715   2.184       .  S
Mg2707     O2708   2.240       .  S
Mg2707     O2709   2.272       .  S
Mg2707     O2736   2.217       .  S
O2709      C2713   1.261       .  A
O2710     Mg2717   2.318       .  S
O2711      C2730   1.258       .  A
O2712      C2732   1.274       .  A
O2712     Mg2728   2.311       .  S
O2714     Mg2728   2.267       .  S
O2714      C2725   1.265       .  A
O2715     Mg2734   2.189       .  S
O2716     Mg2728   2.331       .  S
Mg2717     O2733   2.270       .  S
O2718     Mg2734   2.289       .  S
H2719      C2724   1.081       .  S
O2720     Mg2728   2.236       .  S
O2720      C2723   1.268       .  A
H2721      C2723   1.082       .  S
H2722      C2725   1.082       .  S
O2727     Mg2734   2.269       .  S
C2730      O2735   1.275       .  A
O2731      C2732   1.269       .  A
C2732      C2838   1.468       .  S
O2737     Mg2739   2.159       .  S
O2737     Mg2745   2.166       .  S
O2737      C2772   1.235   1_565  S
C2738      O2751   1.265       .  A
C2738      O2775   1.278       .  A
C2738      H2777   1.082       .  S
Mg2739     O2768   2.171       .  S
Mg2739     O2783   2.268       .  S
Mg2739     O2779   2.222       .  S
Mg2739     O2750   2.264       .  S
O2740     Mg2782   2.204       .  S
O2740     Mg2765   2.238       .  S
O2740      C2761   1.270       .  A
O2741      C2772   1.274       .  A
O2741     Mg2765   2.335       .  S
C2742      O2744   1.278       .  A
C2742      O2756   1.273       .  A
O2743      C2771   1.262       .  A
O2743     Mg2745   2.280       .  S
O2744     Mg2776   2.287       .  S
Mg2745     O2751   2.294   1_565  S
Mg2745     O2759   2.220       .  S
Mg2745     O2747   2.218   1_565  S
C2746      O2784   1.259       .  A
C2746      O2752   1.274       .  A
O2747      C2754   1.258       .  A
H2748      C2761   1.082       .  S
C2749      O2764   1.275       .  A
C2749      H2774   1.081       .  S
C2749      O2763   1.241   1_565  S
O2750      C2773   1.257       .  A
O2751     Mg2765   2.259       .  S
O2752     Mg2782   2.361       .  S
C2753      O2766   1.270       .  A
C2753      O2758   1.275       .  A
C2753      C3090   1.465       .  S
C2754      O2781   1.265       .  A
C2754      C2874   1.483       .  S
Mg2755     O2762   2.127       .  S
Mg2755     O2763   2.115   1_565  S
Mg2755     O2756   2.286       .  S
Mg2755     O2757   2.348   1_565  S
Mg2755     O2784   2.169   1_565  S
O2757      C2761   1.279       .  A
O2758     Mg2765   2.305       .  S
O2759      C2778   1.267       .  A
O2760      C2780   1.280       .  A
O2760     Mg2776   2.336       .  S
O2762     Mg2776   2.197       .  S
O2762      C2773   1.255       .  A
O2763     Mg2782   2.159       .  S
O2764     Mg2776   2.308       .  S
Mg2765     O2781   2.322       .  S
O2766     Mg2782   2.263       .  S
H2767      C2772   1.081       .  S
O2768     Mg2776   2.125       .  S
O2768      C2771   1.230       .  S
H2769      C2771   1.081       .  S
H2770      C2773   1.082       .  S
O2775     Mg2782   2.369       .  S
C2778      O2783   1.273       .  A
C2778      C2826   1.464       .  S
O2779      C2780   1.276       .  A
O2785     Mg2787   2.181       .  S
O2785     Mg2793   2.183       .  S
O2785      C2820   1.234       .  S
C2786      O2799   1.266       .  A
C2786      O2823   1.280       .  A
C2786      H2825   1.082       .  S
Mg2787     O2816   2.163       .  S
Mg2787     O2831   2.265       .  S
Mg2787     O2827   2.282       .  S
Mg2787     O2798   2.269       .  S
O2788     Mg2830   2.199       .  S
O2788     Mg2813   2.245       .  S
O2788      C2809   1.269       .  A
O2789      C2820   1.272       .  A
O2789     Mg2813   2.324       .  S
C2790      O2792   1.275       .  A
C2790      O2804   1.276       .  A
O2791      C2819   1.262       .  A
O2791     Mg2793   2.277       .  S
O2792     Mg2824   2.274       .  S
Mg2793     O2799   2.297       .  S
Mg2793     O2807   2.222       .  S
Mg2793     O2795   2.250       .  S
C2794      O2832   1.263       .  A
C2794      O2800   1.275       .  A
O2795      C2802   1.263       .  A
H2796      C2809   1.082       .  S
C2797      O2812   1.276       .  A
C2797      H2822   1.081       .  S
C2797      O2811   1.242       .  S
O2798      C2821   1.260       .  A
O2799     Mg2813   2.258       .  S
O2800     Mg2830   2.361       .  S
C2801      O2814   1.269       .  A
C2801      O2806   1.271       .  A
C2802      O2829   1.265       .  A
C2802      C2850   1.486   1_565  S
Mg2803     O2810   2.135       .  S
Mg2803     O2811   2.118       .  S
Mg2803     O2804   2.307       .  S
Mg2803     O2805   2.358       .  S
Mg2803     O2832   2.197       .  S
O2805      C2809   1.279       .  A
O2806     Mg2813   2.296       .  S
O2807      C2826   1.269       .  A
O2808      C2828   1.279       .  A
O2808     Mg2824   2.313       .  S
O2810     Mg2824   2.191       .  S
O2810      C2821   1.258       .  A
O2811     Mg2830   2.147       .  S
O2812     Mg2824   2.308       .  S
Mg2813     O2829   2.293       .  S
O2814     Mg2830   2.265       .  S
H2815      C2820   1.081       .  S
O2816     Mg2824   2.115       .  S
O2816      C2819   1.229       .  S
H2817      C2819   1.081       .  S
H2818      C2821   1.082       .  S
O2823     Mg2830   2.374       .  S
C2826      O2831   1.274       .  A
O2827      C2828   1.281       .  A
O2833     Mg2835   2.167       .  S
O2833     Mg2841   2.174       .  S
O2833      C2868   1.234       .  S
C2834      O2847   1.268       .  A
C2834      O2871   1.283       .  A
C2834      H2873   1.082       .  S
Mg2835     O2864   2.157       .  S
Mg2835     O2879   2.260       .  S
Mg2835     O2875   2.222       .  S
Mg2835     O2846   2.267       .  S
O2836     Mg2878   2.205       .  S
O2836     Mg2861   2.247       .  S
O2836      C2857   1.270       .  A
O2837      C2868   1.271       .  A
O2837     Mg2861   2.318       .  S
C2838      O2840   1.278       .  A
C2838      O2852   1.277       .  A
O2839      C2867   1.263       .  A
O2839     Mg2841   2.287       .  S
O2840     Mg2872   2.283       .  S
Mg2841     O2847   2.320       .  S
Mg2841     O2855   2.299       .  S
Mg2841     O2843   2.260       .  S
C2842      O2880   1.264       .  A
C2842      O2848   1.280       .  A
O2843      C2850   1.268       .  A
H2844      C2857   1.082       .  S
C2845      O2860   1.274       .  A
C2845      H2870   1.081       .  S
C2845      O2859   1.240       .  S
O2846      C2869   1.262       .  A
O2847     Mg2861   2.263       .  S
O2848     Mg2878   2.381       .  S
C2849      O2862   1.271       .  A
C2849      O2854   1.267       .  A
C2850      O2877   1.264       .  A
Mg2851     O2858   2.151       .  S
Mg2851     O2859   2.118       .  S
Mg2851     O2852   2.300       .  S
Mg2851     O2853   2.355       .  S
Mg2851     O2880   2.207       .  S
O2853      C2857   1.280       .  A
O2854     Mg2861   2.271       .  S
O2855      C2874   1.275       .  A
O2856      C2876   1.281       .  A
O2856     Mg2872   2.347       .  S
O2858     Mg2872   2.210       .  S
O2858      C2869   1.260       .  A
O2859     Mg2878   2.139       .  S
O2860     Mg2872   2.303       .  S
Mg2861     O2877   2.275       .  S
O2862     Mg2878   2.307       .  S
H2863      C2868   1.081       .  S
O2864     Mg2872   2.128       .  S
O2864      C2867   1.229       .  S
H2865      C2867   1.081       .  S
H2866      C2869   1.082       .  S
O2871     Mg2878   2.387       .  S
C2874      O2879   1.271       .  A
O2875      C2876   1.274       .  A
C2876      C3114   1.467       .  S
O2881     Mg2883   2.138       .  S
O2881     Mg2889   2.122       .  S
O2881      C2916   1.242       .  S
C2882      O2895   1.260       .  A
C2882      O2919   1.262       .  A
C2882      H2921   1.082       .  S
Mg2883     O2912   2.205       .  S
Mg2883     O2927   2.383       .  S
Mg2883     O2923   2.306       .  S
Mg2883     O2894   2.395       .  S
O2884     Mg2926   2.154       .  S
O2884     Mg2909   2.108       .  S
O2884      C2905   1.229       .  S
O2885      C2916   1.276       .  A
O2885     Mg2909   2.305       .  S
C2886      O2888   1.264       .  A
C2886      O2900   1.270       .  A
C2886      C2982   1.491   1_655  S
O2887      C2915   1.279       .  A
O2887     Mg2889   2.352       .  S
O2888     Mg2920   2.277       .  S
Mg2889     O2895   2.147       .  S
Mg2889     O2903   2.209       .  S
Mg2889     O2891   2.299       .  S
C2890      O2928   1.276       .  A
C2890      O2896   1.272       .  A
C2890      C2934   1.484   1_554  S
O2891      C2898   1.276       .  A
H2892      C2905   1.081       .  S
C2893      O2908   1.273       .  A
C2893      H2918   1.081       .  S
C2893      O2907   1.234       .  S
O2894      C2917   1.284       .  A
O2895     Mg2909   2.199       .  S
O2896     Mg2926   2.254       .  S
C2897      O2910   1.281       .  A
C2897      O2902   1.280       .  A
C2898      O2925   1.274       .  A
C2898      C4097   1.466       .  S
Mg2899     O2906   2.342       .  S
Mg2899     O2907   2.190       .  S
Mg2899     O2900   2.271       .  S
Mg2899     O2901   2.283       .  S
Mg2899     O2928   2.308       .  S
O2901      C2905   1.262       .  A
O2902     Mg2909   2.321       .  S
O2903      C2922   1.265       .  A
O2904      C2924   1.270       .  A
O2904     Mg2920   2.291       .  S
O2906     Mg2920   2.269       .  S
O2906      C2917   1.268       .  A
O2907     Mg2926   2.200       .  S
O2908     Mg2920   2.325       .  S
Mg2909     O2925   2.269       .  S
O2910     Mg2926   2.291       .  S
H2911      C2916   1.081       .  S
O2912     Mg2920   2.246       .  S
O2912      C2915   1.269       .  A
H2913      C2915   1.082       .  S
H2914      C2917   1.082       .  S
O2919     Mg2926   2.272       .  S
C2922      O2927   1.280       .  A
C2922      C4145   1.472       .  S
O2923      C2924   1.270       .  A
C2924      C3322   1.472       .  S
O2929     Mg2931   2.175       .  S
O2929     Mg2937   2.116   1_655  S
O2929      C2964   1.242   1_655  S
C2930      O2967   1.258       .  A
C2930      H2969   1.081       .  S
C2930      O2943   1.228       .  S
Mg2931     O2960   2.233       .  S
Mg2931     O2975   2.362       .  S
Mg2931     O2971   2.294       .  S
Mg2931     O2942   2.365       .  S
O2932     Mg2974   2.158       .  S
O2932     Mg2957   2.122       .  S
O2932      C2953   1.230       .  S
O2933      C2964   1.276       .  A
O2933     Mg2957   2.315       .  S
C2934      O2936   1.263       .  A
C2934      O2948   1.256       .  A
O2935      C2963   1.277       .  A
O2935     Mg2937   2.327   1_655  S
O2936     Mg2968   2.326       .  S
Mg2937     O2943   2.065       .  S
Mg2937     O2951   2.174   1_455  S
Mg2937     O2939   2.272       .  S
C2938      O2976   1.266       .  A
C2938      O2944   1.272       .  A
C2938      C2986   1.462       .  S
O2939      C2946   1.273       .  A
H2940      C2953   1.081       .  S
C2941      O2956   1.274       .  A
C2941      H2966   1.081       .  S
C2941      O2955   1.235   1_655  S
O2942      C2965   1.276       .  A
O2943     Mg2957   2.121       .  S
O2944     Mg2974   2.264       .  S
C2945      O2958   1.277       .  A
C2945      O2950   1.283       .  A
C2946      O2973   1.277       .  A
Mg2947     O2954   2.299   1_455  S
Mg2947     O2955   2.160       .  S
Mg2947     O2948   2.207   1_455  S
Mg2947     O2949   2.281       .  S
Mg2947     O2976   2.218       .  S
O2949      C2953   1.263       .  A
O2950     Mg2957   2.361       .  S
O2951      C2970   1.261       .  A
O2952      C2972   1.274       .  A
O2952     Mg2968   2.279       .  S
O2954     Mg2968   2.266       .  S
O2954      C2965   1.263       .  A
O2955     Mg2974   2.153       .  S
O2956     Mg2968   2.336       .  S
Mg2957     O2973   2.292       .  S
O2958     Mg2974   2.226       .  S
H2959      C2964   1.081   1_655  S
O2960     Mg2968   2.231       .  S
O2960      C2963   1.272       .  A
H2961      C2963   1.082       .  S
H2962      C2965   1.083       .  S
O2967     Mg2974   2.252       .  S
C2970      O2975   1.275       .  A
O2971      C2972   1.273       .  A
O2977     Mg2979   2.143       .  S
O2977     Mg2985   2.118   1_554  S
O2977      C3012   1.243   1_554  S
C2978      O2991   1.257       .  A
C2978      O3015   1.259       .  A
C2978      H3017   1.082       .  S
Mg2979     O3008   2.210       .  S
Mg2979     O3023   2.372       .  S
Mg2979     O3019   2.270       .  S
Mg2979     O2990   2.374       .  S
O2980     Mg3022   2.160       .  S
O2980     Mg3005   2.108       .  S
O2980      C3001   1.229       .  S
O2981      C3012   1.277       .  A
O2981     Mg3005   2.309       .  S
C2982      O2984   1.265       .  A
C2982      O2996   1.262       .  A
O2983      C3011   1.280       .  A
O2983     Mg2985   2.350   1_554  S
O2984     Mg3016   2.305       .  S
Mg2985     O2991   2.142       .  S
Mg2985     O2999   2.214   1_556  S
Mg2985     O2987   2.300       .  S
C2986      O3024   1.269       .  A
C2986      O2992   1.274       .  A
O2987      C2994   1.276       .  A
H2988      C3001   1.081       .  S
C2989      O3004   1.274       .  A
C2989      H3014   1.081       .  S
C2989      O3003   1.235   1_554  S
O2990      C3013   1.279       .  A
O2991     Mg3005   2.192       .  S
O2992     Mg3022   2.266       .  S
C2993      O3006   1.282       .  A
C2993      O2998   1.282       .  A
C2994      O3021   1.275       .  A
C2994      C3953   1.467       .  S
Mg2995     O3002   2.308   1_556  S
Mg2995     O3003   2.182       .  S
Mg2995     O2996   2.239   1_556  S
Mg2995     O2997   2.274       .  S
Mg2995     O3024   2.224       .  S
O2997      C3001   1.261       .  A
O2998     Mg3005   2.332       .  S
O2999      C3018   1.265       .  A
O3000      C3020   1.273       .  A
O3000     Mg3016   2.309       .  S
O3002     Mg3016   2.260       .  S
O3002      C3013   1.265       .  A
O3003     Mg3022   2.187       .  S
O3004     Mg3016   2.333       .  S
Mg3005     O3021   2.275       .  S
O3006     Mg3022   2.288       .  S
H3007      C3012   1.081       .  S
O3008     Mg3016   2.247       .  S
O3008      C3011   1.271       .  A
H3009      C3011   1.082       .  S
H3010      C3013   1.082       .  S
O3015     Mg3022   2.270       .  S
C3018      O3023   1.278       .  A
C3018      C3905   1.472       .  S
O3019      C3020   1.271       .  A
C3020      C3318   1.468       .  S
O3025     Mg3027   2.150       .  S
O3025     Mg3033   2.125       .  S
O3025      C3060   1.242       .  S
C3026      O3039   1.258       .  A
C3026      O3063   1.260       .  A
C3026      H3065   1.082       .  S
Mg3027     O3056   2.223       .  S
Mg3027     O3071   2.378       .  S
Mg3027     O3067   2.302       .  S
Mg3027     O3038   2.383       .  S
O3028     Mg3070   2.170       .  S
O3028     Mg3053   2.131       .  S
O3028      C3049   1.229       .  S
O3029      C3060   1.276       .  A
O3029     Mg3053   2.311       .  S
C3030      O3032   1.261       .  A
C3030      O3044   1.269       .  A
C3030      C3078   1.489       .  S
O3031      C3059   1.276       .  A
O3031     Mg3033   2.333       .  S
O3032     Mg3064   2.270       .  S
Mg3033     O3039   2.134       .  S
Mg3033     O3047   2.165       .  S
Mg3033     O3035   2.276       .  S
C3034      O3072   1.276       .  A
C3034      O3040   1.273       .  A
C3034      C3126   1.487       .  S
O3035      C3042   1.272       .  A
H3036      C3049   1.081       .  S
C3037      O3052   1.274       .  A
C3037      H3062   1.081       .  S
C3037      O3051   1.235       .  S
O3038      C3061   1.281       .  A
O3039     Mg3053   2.194       .  S
O3040     Mg3070   2.265       .  S
C3041      O3054   1.281       .  A
C3041      O3046   1.281       .  A
C3041      C3894   1.474       .  S
C3042      O3069   1.278       .  A
C3042      C4316   1.474       .  S
Mg3043     O3050   2.336       .  S
Mg3043     O3051   2.185       .  S
Mg3043     O3044   2.255       .  S
Mg3043     O3045   2.288       .  S
Mg3043     O3072   2.305       .  S
O3045      C3049   1.263       .  A
O3046     Mg3053   2.326       .  S
O3047      C3066   1.261       .  A
O3048      C3068   1.270       .  A
O3048     Mg3064   2.283       .  S
O3050     Mg3064   2.279       .  S
O3050      C3061   1.266       .  A
O3051     Mg3070   2.200       .  S
O3052     Mg3064   2.329       .  S
Mg3053     O3069   2.312       .  S
O3054     Mg3070   2.283       .  S
H3055      C3060   1.081       .  S
O3056     Mg3064   2.231       .  S
O3056      C3059   1.268       .  A
H3057      C3059   1.082       .  S
H3058      C3061   1.082       .  S
O3063     Mg3070   2.271       .  S
C3066      O3071   1.279       .  A
C3066      C4220   1.467       .  S
O3067      C3068   1.271       .  A
O3073     Mg3075   2.156       .  S
O3073     Mg3081   2.108       .  S
O3073      C3108   1.241       .  S
C3074      O3087   1.258       .  A
C3074      O3111   1.259       .  A
C3074      H3113   1.082       .  S
Mg3075     O3104   2.202       .  S
Mg3075     O3119   2.374       .  S
Mg3075     O3115   2.263       .  S
Mg3075     O3086   2.373       .  S
O3076     Mg3118   2.158       .  S
O3076     Mg3101   2.111       .  S
O3076      C3097   1.229       .  S
O3077      C3108   1.275       .  A
O3077     Mg3101   2.311       .  S
C3078      O3080   1.266       .  A
C3078      O3092   1.261       .  A
O3079      C3107   1.280       .  A
O3079     Mg3081   2.361       .  S
O3080     Mg3112   2.305       .  S
Mg3081     O3087   2.129       .  S
Mg3081     O3095   2.179       .  S
Mg3081     O3083   2.283       .  S
C3082      O3120   1.270       .  A
C3082      O3088   1.271       .  A
C3082      C3130   1.462       .  S
O3083      C3090   1.274       .  A
H3084      C3097   1.081       .  S
C3085      O3100   1.270       .  A
C3085      H3110   1.081       .  S
C3085      O3099   1.233       .  S
O3086      C3109   1.279       .  A
O3087     Mg3101   2.203       .  S
O3088     Mg3118   2.250       .  S
C3089      O3102   1.275       .  A
C3089      O3094   1.281       .  A
C3089      C3466   1.462       .  S
C3090      O3117   1.277       .  A
Mg3091     O3098   2.302       .  S
Mg3091     O3099   2.170       .  S
Mg3091     O3092   2.224       .  S
Mg3091     O3093   2.277       .  S
Mg3091     O3120   2.230       .  S
O3093      C3097   1.261       .  A
O3094     Mg3101   2.340       .  S
O3095      C3114   1.259       .  A
O3096      C3116   1.272       .  A
O3096     Mg3112   2.298       .  S
O3098     Mg3112   2.271       .  S
O3098      C3109   1.265       .  A
O3099     Mg3118   2.155       .  S
O3100     Mg3112   2.320       .  S
Mg3101     O3117   2.280       .  S
O3102     Mg3118   2.219       .  S
H3103      C3108   1.081       .  S
O3104     Mg3112   2.252       .  S
O3104      C3107   1.269       .  A
H3105      C3107   1.082       .  S
H3106      C3109   1.082       .  S
O3111     Mg3118   2.262       .  S
C3114      O3119   1.275       .  A
O3115      C3116   1.269       .  A
O3121     Mg3123   2.176       .  S
O3121     Mg3129   2.123       .  S
O3121      C3156   1.244       .  S
C3122      O3135   1.255       .  A
C3122      O3159   1.257       .  A
C3122      H3161   1.083       .  S
Mg3123     O3152   2.239       .  S
Mg3123     O3167   2.368       .  S
Mg3123     O3163   2.305       .  S
Mg3123     O3134   2.363       .  S
O3124     Mg3166   2.174       .  S
O3124     Mg3149   2.119       .  S
O3124      C3145   1.230       .  S
O3125      C3156   1.279       .  A
O3125     Mg3149   2.322       .  S
C3126      O3128   1.263       .  A
C3126      O3140   1.257       .  A
O3127      C3155   1.276       .  A
O3127     Mg3129   2.325       .  S
O3128     Mg3160   2.329       .  S
Mg3129     O3135   2.127       .  S
Mg3129     O3143   2.159       .  S
Mg3129     O3131   2.292       .  S
C3130      O3168   1.265       .  A
C3130      O3136   1.275       .  A
O3131      C3138   1.274       .  A
H3132      C3145   1.081       .  S
C3133      O3148   1.275       .  A
C3133      H3158   1.081       .  S
C3133      O3147   1.236       .  S
O3134      C3157   1.275       .  A
O3135     Mg3149   2.180       .  S
O3136     Mg3166   2.273       .  S
C3137      O3150   1.282       .  A
C3137      O3142   1.282       .  A
C3137      C3462   1.473       .  S
C3138      O3165   1.276       .  A
C3138      C3452   1.474       .  S
Mg3139     O3146   2.295       .  S
Mg3139     O3147   2.175       .  S
Mg3139     O3140   2.218       .  S
Mg3139     O3141   2.277       .  S
Mg3139     O3168   2.199       .  S
O3141      C3145   1.262       .  A
O3142     Mg3149   2.336       .  S
O3143      C3162   1.260       .  A
O3144      C3164   1.274       .  A
O3144     Mg3160   2.278       .  S
O3146     Mg3160   2.261       .  S
O3146      C3157   1.262       .  A
O3147     Mg3166   2.175       .  S
O3148     Mg3160   2.341       .  S
Mg3149     O3165   2.299       .  S
O3150     Mg3166   2.274       .  S
H3151      C3156   1.081       .  S
O3152     Mg3160   2.232       .  S
O3152      C3155   1.270       .  A
H3153      C3155   1.082       .  S
H3154      C3157   1.083       .  S
O3159     Mg3166   2.270       .  S
C3162      O3167   1.278       .  A
C3162      C3356   1.464       .  S
O3163      C3164   1.275       .  A
C3164      C3898   1.466       .  S
O3169     Mg3171   2.199       .  S
O3169     Mg3177   2.186       .  S
O3169      C3204   1.235       .  S
C3170      O3183   1.267       .  A
C3170      O3207   1.282       .  A
C3170      H3209   1.082       .  S
Mg3171     O3200   2.166       .  S
Mg3171     O3215   2.264       .  S
Mg3171     O3211   2.285       .  S
Mg3171     O3182   2.271       .  S
O3172     Mg3214   2.211       .  S
O3172     Mg3197   2.230       .  S
O3172      C3193   1.268       .  A
O3173      C3204   1.273       .  A
O3173     Mg3197   2.326       .  S
C3174      O3176   1.278       .  A
C3174      O3188   1.272       .  A
C3174      C4529   1.474       .  S
O3175      C3203   1.263       .  A
O3175     Mg3177   2.288       .  S
O3176     Mg3208   2.308       .  S
Mg3177     O3183   2.330       .  S
Mg3177     O3191   2.300       .  S
Mg3177     O3179   2.264       .  S
C3178      O3216   1.260       .  A
C3178      O3184   1.278       .  A
C3178      C4604   1.458       .  S
O3179      C3186   1.270       .  A
H3180      C3193   1.082       .  S
C3181      O3196   1.275       .  A
C3181      H3206   1.081       .  S
C3181      O3195   1.242       .  S
O3182      C3205   1.261       .  A
O3183     Mg3197   2.273       .  S
O3184     Mg3214   2.368       .  S
C3185      O3198   1.270       .  A
C3185      O3190   1.269       .  A
C3185      C3834   1.469       .  S
C3186      O3213   1.262       .  A
C3186      C3282   1.488       .  S
Mg3187     O3194   2.136       .  S
Mg3187     O3195   2.124       .  S
Mg3187     O3188   2.278       .  S
Mg3187     O3189   2.342       .  S
Mg3187     O3216   2.176       .  S
O3189      C3193   1.277       .  A
O3190     Mg3197   2.282       .  S
O3191      C3210   1.275       .  A
O3192      C3212   1.280       .  A
O3192     Mg3208   2.323       .  S
O3194     Mg3208   2.195       .  S
O3194      C3205   1.258       .  A
O3195     Mg3214   2.143       .  S
O3196     Mg3208   2.307       .  S
Mg3197     O3213   2.267       .  S
O3198     Mg3214   2.304       .  S
H3199      C3204   1.081       .  S
O3200     Mg3208   2.129       .  S
O3200      C3203   1.229       .  S
H3201      C3203   1.081       .  S
H3202      C3205   1.082       .  S
O3207     Mg3214   2.385       .  S
C3210      O3215   1.273       .  A
C3210      C3234   1.484       .  S
O3211      C3212   1.282       .  A
O3217     Mg3219   2.165       .  S
O3217     Mg3225   2.172       .  S
O3217      C3252   1.235       .  S
C3218      O3231   1.264       .  A
C3218      O3255   1.276       .  A
C3218      H3257   1.083       .  S
Mg3219     O3248   2.159       .  S
Mg3219     O3263   2.282       .  S
Mg3219     O3259   2.271       .  S
Mg3219     O3230   2.259       .  S
O3220     Mg3262   2.215       .  S
O3220     Mg3245   2.224       .  S
O3220      C3241   1.270       .  A
O3221      C3252   1.273       .  A
O3221     Mg3245   2.331       .  S
C3222      O3224   1.278       .  A
C3222      O3236   1.271       .  A
O3223      C3251   1.262       .  A
O3223     Mg3225   2.277       .  S
O3224     Mg3256   2.306       .  S
Mg3225     O3231   2.284       .  S
Mg3225     O3239   2.201       .  S
Mg3225     O3227   2.225       .  S
C3226      O3264   1.262       .  A
C3226      O3232   1.273       .  A
O3227      C3234   1.259       .  A
H3228      C3241   1.082       .  S
C3229      O3244   1.275       .  A
C3229      H3254   1.081       .  S
C3229      O3243   1.241       .  S
O3230      C3253   1.260       .  A
O3231     Mg3245   2.258       .  S
O3232     Mg3262   2.338       .  S
C3233      O3246   1.269       .  A
C3233      O3238   1.271       .  A
C3234      O3261   1.263       .  A
Mg3235     O3242   2.077       .  S
Mg3235     O3243   2.115       .  S
Mg3235     O3236   2.266       .  S
Mg3235     O3237   2.339       .  S
Mg3235     O3264   2.200       .  S
O3237      C3241   1.278       .  A
O3238     Mg3245   2.270       .  S
O3239      C3258   1.265       .  A
O3240      C3260   1.284       .  A
O3240     Mg3256   2.349       .  S
O3242     Mg3256   2.126       .  S
O3242      C3253   1.229       .  S
O3243     Mg3262   2.154       .  S
O3244     Mg3256   2.310       .  S
Mg3245     O3261   2.315       .  S
O3246     Mg3262   2.274       .  S
H3247      C3252   1.081       .  S
O3248     Mg3256   2.126       .  S
O3248      C3251   1.230       .  S
H3249      C3251   1.081       .  S
H3250      C3253   1.081       .  S
O3255     Mg3262   2.366       .  S
C3258      O3263   1.276       .  A
C3258      C3306   1.461       .  S
O3259      C3260   1.280       .  A
O3265     Mg3267   2.154       .  S
O3265     Mg3273   2.168       .  S
O3265      C3300   1.233       .  S
C3266      O3279   1.266       .  A
C3266      O3303   1.280       .  A
C3266      H3305   1.082       .  S
Mg3267     O3296   2.145       .  S
Mg3267     O3311   2.256       .  S
Mg3267     O3307   2.220       .  S
Mg3267     O3278   2.252       .  S
O3268     Mg3310   2.199       .  S
O3268     Mg3293   2.255       .  S
O3268      C3289   1.271       .  A
O3269      C3300   1.270       .  A
O3269     Mg3293   2.319       .  S
C3270      O3272   1.276       .  A
C3270      O3284   1.277       .  A
O3271      C3299   1.261       .  A
O3271     Mg3273   2.276       .  S
O3272     Mg3304   2.274       .  S
Mg3273     O3279   2.300       .  S
Mg3273     O3287   2.233       .  S
Mg3273     O3275   2.232       .  S
C3274      O3312   1.265       .  A
C3274      O3280   1.274       .  A
O3275      C3282   1.262       .  A
H3276      C3289   1.082       .  S
C3277      O3292   1.273       .  A
C3277      H3302   1.081       .  S
C3277      O3291   1.240       .  S
O3278      C3301   1.261       .  A
O3279     Mg3293   2.266       .  S
O3280     Mg3310   2.357       .  S
C3281      O3294   1.267       .  A
C3281      O3286   1.272       .  A
C3281      C3810   1.463       .  S
C3282      O3309   1.267       .  A
Mg3283     O3290   2.076       .  S
Mg3283     O3291   2.108       .  S
Mg3283     O3284   2.297       .  S
Mg3283     O3285   2.364       .  S
Mg3283     O3312   2.225       .  S
O3285      C3289   1.282       .  A
O3286     Mg3293   2.300       .  S
O3287      C3306   1.270       .  A
O3288      C3308   1.282       .  A
O3288     Mg3304   2.352       .  S
O3290     Mg3304   2.138       .  S
O3290      C3301   1.231       .  S
O3291     Mg3310   2.142       .  S
O3292     Mg3304   2.304       .  S
Mg3293     O3309   2.301       .  S
O3294     Mg3310   2.255       .  S
H3295      C3300   1.081       .  S
O3296     Mg3304   2.114       .  S
O3296      C3299   1.229       .  S
H3297      C3299   1.081       .  S
H3298      C3301   1.081       .  S
O3303     Mg3310   2.375       .  S
C3306      O3311   1.271       .  A
O3307      C3308   1.274       .  A
O3313     Mg3315   2.133   1_655  S
O3313     Mg3321   2.165       .  S
O3313      C3348   1.234       .  S
C3314      O3327   1.265       .  A
C3314      O3351   1.278       .  A
C3314      H3353   1.082       .  S
Mg3315     O3344   2.154       .  S
Mg3315     O3359   2.275       .  S
Mg3315     O3355   2.213       .  S
Mg3315     O3326   2.253       .  S
O3316     Mg3358   2.213       .  S
O3316     Mg3341   2.248       .  S
O3316      C3337   1.271       .  A
O3317      C3348   1.272       .  A
O3317     Mg3341   2.325       .  S
C3318      O3320   1.276       .  A
C3318      O3332   1.278       .  A
O3319      C3347   1.261       .  A
O3319     Mg3321   2.273   1_455  S
O3320     Mg3352   2.276       .  S
Mg3321     O3327   2.279       .  S
Mg3321     O3335   2.193   1_655  S
Mg3321     O3323   2.206       .  S
C3322      O3360   1.266       .  A
C3322      O3328   1.278       .  A
O3323      C3330   1.255       .  A
H3324      C3337   1.082       .  S
C3325      O3340   1.274       .  A
C3325      H3350   1.081   1_455  S
C3325      O3339   1.240   1_455  S
O3326      C3349   1.260       .  A
O3327     Mg3341   2.252       .  S
O3328     Mg3358   2.365       .  S
C3329      O3342   1.272       .  A
C3329      O3334   1.269       .  A
C3330      O3357   1.265       .  A
C3330      C3402   1.487       .  S
Mg3331     O3338   2.079       .  S
Mg3331     O3339   2.114   1_455  S
Mg3331     O3332   2.304       .  S
Mg3331     O3333   2.351   1_455  S
Mg3331     O3360   2.224   1_455  S
O3333      C3337   1.280       .  A
O3334     Mg3341   2.258       .  S
O3335      C3354   1.265       .  A
O3336      C3356   1.281       .  A
O3336     Mg3352   2.348       .  S
O3338     Mg3352   2.133       .  S
O3338      C3349   1.230       .  S
O3339     Mg3358   2.152       .  S
O3340     Mg3352   2.303       .  S
Mg3341     O3357   2.335       .  S
O3342     Mg3358   2.288       .  S
H3343      C3348   1.081       .  S
O3344     Mg3352   2.125       .  S
O3344      C3347   1.229       .  S
H3345      C3347   1.081       .  S
H3346      C3349   1.081       .  S
O3351     Mg3358   2.371       .  S
C3354      O3359   1.274       .  A
C3354      C3450   1.456       .  S
O3355      C3356   1.275       .  A
O3361     Mg3363   2.203       .  S
O3361     Mg3369   2.181       .  S
O3361      C3396   1.235       .  S
C3362      O3375   1.267       .  A
C3362      O3399   1.282       .  A
C3362      H3401   1.082       .  S
Mg3363     O3392   2.158       .  S
Mg3363     O3407   2.257       .  S
Mg3363     O3403   2.286       .  S
Mg3363     O3374   2.268       .  S
O3364     Mg3406   2.208       .  S
O3364     Mg3389   2.247       .  S
O3364      C3385   1.268       .  A
O3365      C3396   1.274       .  A
O3365     Mg3389   2.335       .  S
C3366      O3368   1.275       .  A
C3366      O3380   1.271       .  A
O3367      C3395   1.262       .  A
O3367     Mg3369   2.284       .  S
O3368     Mg3400   2.283       .  S
Mg3369     O3375   2.357       .  S
Mg3369     O3383   2.325       .  S
Mg3369     O3371   2.253       .  S
C3370      O3408   1.258       .  A
C3370      O3376   1.278       .  A
O3371      C3378   1.270       .  A
H3372      C3385   1.082       .  S
C3373      O3388   1.275       .  A
C3373      H3398   1.081       .  S
C3373      O3387   1.241       .  S
O3374      C3397   1.260       .  A
O3375     Mg3389   2.285       .  S
O3376     Mg3406   2.385       .  S
C3377      O3390   1.268       .  A
C3377      O3382   1.277       .  A
C3378      O3405   1.265       .  A
C3378      C3426   1.492   1_655  S
Mg3379     O3386   2.129       .  S
Mg3379     O3387   2.117       .  S
Mg3379     O3380   2.274       .  S
Mg3379     O3381   2.350       .  S
Mg3379     O3408   2.166       .  S
O3381      C3385   1.278       .  A
O3382     Mg3389   2.338       .  S
O3383      C3402   1.279       .  A
O3384      C3404   1.279       .  A
O3384     Mg3400   2.310       .  S
O3386     Mg3400   2.200       .  S
O3386      C3397   1.259       .  A
O3387     Mg3406   2.139       .  S
O3388     Mg3400   2.302       .  S
Mg3389     O3405   2.282       .  S
O3390     Mg3406   2.264       .  S
H3391      C3396   1.081       .  S
O3392     Mg3400   2.112       .  S
O3392      C3395   1.229       .  S
H3393      C3395   1.081       .  S
H3394      C3397   1.082       .  S
O3399     Mg3406   2.388       .  S
C3402      O3407   1.271       .  A
O3403      C3404   1.281       .  A
O3409     Mg3411   2.174       .  S
O3409     Mg3417   2.178       .  S
O3409      C3444   1.234       .  S
C3410      O3423   1.265       .  A
C3410      O3447   1.278       .  A
C3410      H3449   1.083       .  S
Mg3411     O3440   2.156       .  S
Mg3411     O3455   2.252       .  S
Mg3411     O3451   2.275       .  S
Mg3411     O3422   2.271       .  S
O3412     Mg3454   2.222       .  S
O3412     Mg3437   2.240       .  S
O3412      C3433   1.268       .  A
O3413      C3444   1.272       .  A
O3413     Mg3437   2.322       .  S
C3414      O3416   1.274       .  A
C3414      O3428   1.273       .  A
C3414      C3788   1.466       .  S
O3415      C3443   1.261       .  A
O3415     Mg3417   2.273       .  S
O3416     Mg3448   2.272       .  S
Mg3417     O3423   2.301       .  S
Mg3417     O3431   2.218       .  S
Mg3417     O3419   2.233       .  S
C3418      O3456   1.260       .  A
C3418      O3424   1.278       .  A
C3418      C3809   1.467       .  S
O3419      C3426   1.262       .  A
H3420      C3433   1.082       .  S
C3421      O3436   1.278       .  A
C3421      H3446   1.081       .  S
C3421      O3435   1.243       .  S
O3422      C3445   1.260       .  A
O3423     Mg3437   2.266       .  S
O3424     Mg3454   2.377       .  S
C3425      O3438   1.271       .  A
C3425      O3430   1.270       .  A
C3426      O3453   1.265       .  A
Mg3427     O3434   2.138       .  S
Mg3427     O3435   2.121       .  S
Mg3427     O3428   2.288       .  S
Mg3427     O3429   2.346       .  S
Mg3427     O3456   2.169       .  S
O3429      C3433   1.277       .  A
O3430     Mg3437   2.266       .  S
O3431      C3450   1.269       .  A
O3432      C3452   1.282       .  A
O3432     Mg3448   2.337       .  S
O3434     Mg3448   2.194       .  S
O3434      C3445   1.258       .  A
O3435     Mg3454   2.163       .  S
O3436     Mg3448   2.320       .  S
Mg3437     O3453   2.305       .  S
O3438     Mg3454   2.300       .  S
H3439      C3444   1.081       .  S
O3440     Mg3448   2.097       .  S
O3440      C3443   1.229       .  S
H3441      C3443   1.081       .  S
H3442      C3445   1.082       .  S
O3447     Mg3454   2.374       .  S
C3450      O3455   1.272       .  A
O3451      C3452   1.279       .  A
O3457     Mg3459   2.171       .  S
O3457     Mg3465   2.159       .  S
O3457      C3492   1.237       .  S
C3458      O3471   1.264       .  A
C3458      O3495   1.277       .  A
C3458      H3497   1.082       .  S
Mg3459     O3488   2.177       .  S
Mg3459     O3503   2.276       .  S
Mg3459     O3499   2.223       .  S
Mg3459     O3470   2.267       .  S
O3460     Mg3502   2.226       .  S
O3460     Mg3485   2.232       .  S
O3460      C3481   1.271       .  A
O3461      C3492   1.277       .  A
O3461     Mg3485   2.350       .  S
C3462      O3464   1.280       .  A
C3462      O3476   1.272       .  A
O3463      C3491   1.265       .  A
O3463     Mg3465   2.293       .  S
O3464     Mg3496   2.321       .  S
Mg3465     O3471   2.327       .  S
Mg3465     O3479   2.282       .  S
Mg3465     O3467   2.212       .  S
C3466      O3504   1.260       .  A
C3466      O3472   1.275       .  A
O3467      C3474   1.259       .  A
H3468      C3481   1.082       .  S
C3469      O3484   1.275       .  A
C3469      H3494   1.081       .  S
C3469      O3483   1.241       .  S
O3470      C3493   1.257       .  A
O3471     Mg3485   2.270       .  S
O3472     Mg3502   2.350       .  S
C3473      O3486   1.269       .  A
C3473      O3478   1.280       .  A
C3474      O3501   1.264       .  A
C3474      C3594   1.480   1_455  S
Mg3475     O3482   2.125       .  S
Mg3475     O3483   2.122       .  S
Mg3475     O3476   2.265       .  S
Mg3475     O3477   2.323       .  S
Mg3475     O3504   2.167       .  S
O3477      C3481   1.276       .  A
O3478     Mg3485   2.337       .  S
O3479      C3498   1.270       .  A
O3480      C3500   1.282       .  A
O3480     Mg3496   2.348       .  S
O3482     Mg3496   2.196       .  S
O3482      C3493   1.256       .  A
O3483     Mg3502   2.147       .  S
O3484     Mg3496   2.305       .  S
Mg3485     O3501   2.310       .  S
O3486     Mg3502   2.258       .  S
H3487      C3492   1.081       .  S
O3488     Mg3496   2.144       .  S
O3488      C3491   1.231       .  S
H3489      C3491   1.081       .  S
H3490      C3493   1.083       .  S
O3495     Mg3502   2.369       .  S
C3498      O3503   1.273       .  A
C3498      C3522   1.482       .  S
O3499      C3500   1.277       .  A
C3500      C3786   1.466       .  S
O3505     Mg3507   2.197       .  S
O3505     Mg3513   2.179       .  S
O3505      C3540   1.237   1_655  S
C3506      O3519   1.264       .  A
C3506      O3543   1.278       .  A
C3506      H3545   1.082       .  S
Mg3507     O3536   2.174       .  S
Mg3507     O3551   2.277       .  S
Mg3507     O3547   2.289       .  S
Mg3507     O3518   2.274       .  S
O3508     Mg3550   2.214       .  S
O3508     Mg3533   2.233       .  S
O3508      C3529   1.270       .  A
O3509      C3540   1.277       .  A
O3509     Mg3533   2.349       .  S
C3510      O3512   1.280       .  A
C3510      O3524   1.270       .  A
O3511      C3539   1.265       .  A
O3511     Mg3513   2.290       .  S
O3512     Mg3544   2.322       .  S
Mg3513     O3519   2.323   1_655  S
Mg3513     O3527   2.274       .  S
Mg3513     O3515   2.232   1_655  S
C3514      O3552   1.261       .  A
C3514      O3520   1.274       .  A
O3515      C3522   1.262       .  A
H3516      C3529   1.082       .  S
C3517      O3532   1.274       .  A
C3517      H3542   1.081   1_655  S
C3517      O3531   1.241   1_655  S
O3518      C3541   1.259       .  A
O3519     Mg3533   2.266       .  S
O3520     Mg3550   2.338       .  S
C3521      O3534   1.266       .  A
C3521      O3526   1.278       .  A
C3521      C3762   1.466       .  S
C3522      O3549   1.264       .  A
Mg3523     O3530   2.141   1_455  S
Mg3523     O3531   2.125       .  S
Mg3523     O3524   2.260   1_455  S
Mg3523     O3525   2.333       .  S
Mg3523     O3552   2.199       .  S
O3525      C3529   1.277       .  A
O3526     Mg3533   2.337       .  S
O3527      C3546   1.270       .  A
O3528      C3548   1.281       .  A
O3528     Mg3544   2.328       .  S
O3530     Mg3544   2.200       .  S
O3530      C3541   1.257       .  A
O3531     Mg3550   2.123       .  S
O3532     Mg3544   2.299       .  S
Mg3533     O3549   2.300       .  S
O3534     Mg3550   2.237       .  S
H3535      C3540   1.081       .  S
O3536     Mg3544   2.142       .  S
O3536      C3539   1.231       .  S
H3537      C3539   1.081       .  S
H3538      C3541   1.082       .  S
O3543     Mg3550   2.372       .  S
C3546      O3551   1.276       .  A
C3546      C3570   1.483       .  S
O3547      C3548   1.283       .  A
O3553     Mg3555   2.165       .  S
O3553     Mg3561   2.167       .  S
O3553      C3588   1.235       .  S
C3554      O3567   1.265       .  A
C3554      O3591   1.280       .  A
C3554      H3593   1.082       .  S
Mg3555     O3584   2.165       .  S
Mg3555     O3599   2.265       .  S
Mg3555     O3595   2.219       .  S
Mg3555     O3566   2.269       .  S
O3556     Mg3598   2.214       .  S
O3556     Mg3581   2.230       .  S
O3556      C3577   1.269       .  A
O3557      C3588   1.274       .  A
O3557     Mg3581   2.335       .  S
C3558      O3560   1.278       .  A
C3558      O3572   1.272       .  A
O3559      C3587   1.264       .  A
O3559     Mg3561   2.288       .  S
O3560     Mg3592   2.300       .  S
Mg3561     O3567   2.325       .  S
Mg3561     O3575   2.288       .  S
Mg3561     O3563   2.208       .  S
C3562      O3600   1.259       .  A
C3562      O3568   1.276       .  A
O3563      C3570   1.262       .  A
H3564      C3577   1.082       .  S
C3565      O3580   1.275       .  A
C3565      H3590   1.081       .  S
C3565      O3579   1.241       .  S
O3566      C3589   1.259       .  A
O3567     Mg3581   2.282       .  S
O3568     Mg3598   2.356       .  S
C3569      O3582   1.270       .  A
C3569      O3574   1.273       .  A
C3570      O3597   1.262       .  A
Mg3571     O3578   2.134       .  S
Mg3571     O3579   2.120       .  S
Mg3571     O3572   2.274       .  S
Mg3571     O3573   2.342       .  S
Mg3571     O3600   2.170       .  S
O3573      C3577   1.278       .  A
O3574     Mg3581   2.289       .  S
O3575      C3594   1.272       .  A
O3576      C3596   1.281       .  A
O3576     Mg3592   2.346       .  S
O3578     Mg3592   2.203       .  S
O3578      C3589   1.257       .  A
O3579     Mg3598   2.158       .  S
O3580     Mg3592   2.307       .  S
Mg3581     O3597   2.303       .  S
O3582     Mg3598   2.292       .  S
H3583      C3588   1.081       .  S
O3584     Mg3592   2.129       .  S
O3584      C3587   1.230       .  S
H3585      C3587   1.081       .  S
H3586      C3589   1.083       .  S
O3591     Mg3598   2.377       .  S
C3594      O3599   1.272       .  A
O3595      C3596   1.275       .  A
O3601     Mg3603   2.164       .  S
O3601     Mg3609   2.166       .  S
O3601      C3636   1.236       .  S
C3602      O3615   1.262       .  A
C3602      O3639   1.274       .  A
C3602      H3641   1.082       .  S
Mg3603     O3632   2.178       .  S
Mg3603     O3647   2.274       .  S
Mg3603     O3643   2.220       .  S
Mg3603     O3614   2.266       .  S
O3604     Mg3646   2.228       .  S
O3604     Mg3629   2.241       .  S
O3604      C3625   1.272       .  A
O3605      C3636   1.275       .  A
O3605     Mg3629   2.343       .  S
C3606      O3608   1.281       .  A
C3606      O3620   1.273       .  A
O3607      C3635   1.263       .  A
O3607     Mg3609   2.282       .  S
O3608     Mg3640   2.324       .  S
Mg3609     O3615   2.285       .  S
Mg3609     O3623   2.205       .  S
Mg3609     O3611   2.221       .  S
C3610      O3648   1.259       .  A
C3610      O3616   1.274       .  A
O3611      C3618   1.258       .  A
H3612      C3625   1.082       .  S
C3613      O3628   1.276       .  A
C3613      H3638   1.081       .  S
C3613      O3627   1.242       .  S
O3614      C3637   1.256       .  A
O3615     Mg3629   2.256       .  S
O3616     Mg3646   2.354       .  S
C3617      O3630   1.271       .  A
C3617      O3622   1.276       .  A
C3618      O3645   1.265       .  A
C3618      C3738   1.485       .  S
Mg3619     O3626   2.121       .  S
Mg3619     O3627   2.115       .  S
Mg3619     O3620   2.279       .  S
Mg3619     O3621   2.331       .  S
Mg3619     O3648   2.163       .  S
O3621      C3625   1.278       .  A
O3622     Mg3629   2.313       .  S
O3623      C3642   1.265       .  A
O3624      C3644   1.283       .  A
O3624     Mg3640   2.358       .  S
O3626     Mg3640   2.184       .  S
O3626      C3637   1.255       .  A
O3627     Mg3646   2.159       .  S
O3628     Mg3640   2.312       .  S
Mg3629     O3645   2.325       .  S
O3630     Mg3646   2.251       .  S
H3631      C3636   1.081       .  S
O3632     Mg3640   2.141       .  S
O3632      C3635   1.230       .  S
H3633      C3635   1.081       .  S
H3634      C3637   1.082       .  S
O3639     Mg3646   2.359       .  S
C3642      O3647   1.273       .  A
C3642      C3690   1.462       .  S
O3643      C3644   1.277       .  A
C3644      C3882   1.466       .  S
O3649     Mg3651   2.179       .  S
O3649     Mg3657   2.182       .  S
O3649      C3684   1.234       .  S
C3650      O3663   1.266       .  A
C3650      O3687   1.280       .  A
C3650      H3689   1.082       .  S
Mg3651     O3680   2.167       .  S
Mg3651     O3695   2.262       .  S
Mg3651     O3691   2.268       .  S
Mg3651     O3662   2.268       .  S
O3652     Mg3694   2.207       .  S
O3652     Mg3677   2.234       .  S
O3652      C3673   1.268       .  A
O3653      C3684   1.272       .  A
O3653     Mg3677   2.321       .  S
C3654      O3656   1.277       .  A
C3654      O3668   1.272       .  A
O3655      C3683   1.261       .  A
O3655     Mg3657   2.276       .  S
O3656     Mg3688   2.300       .  S
Mg3657     O3663   2.290       .  S
Mg3657     O3671   2.222       .  S
Mg3657     O3659   2.247       .  S
C3658      O3696   1.260       .  A
C3658      O3664   1.276       .  A
O3659      C3666   1.264       .  A
H3660      C3673   1.082       .  S
C3661      O3676   1.276       .  A
C3661      H3686   1.081       .  S
C3661      O3675   1.242       .  S
O3662      C3685   1.259       .  A
O3663     Mg3677   2.261       .  S
O3664     Mg3694   2.358       .  S
C3665      O3678   1.269       .  A
C3665      O3670   1.266       .  A
C3666      O3693   1.263       .  A
C3666      C3714   1.488       .  S
Mg3667     O3674   2.134       .  S
Mg3667     O3675   2.118       .  S
Mg3667     O3668   2.275       .  S
Mg3667     O3669   2.350       .  S
Mg3667     O3696   2.179       .  S
O3669      C3673   1.278       .  A
O3670     Mg3677   2.260       .  S
O3671      C3690   1.269       .  A
O3672      C3692   1.281       .  A
O3672     Mg3688   2.322       .  S
O3674     Mg3688   2.197       .  S
O3674      C3685   1.258       .  A
O3675     Mg3694   2.146       .  S
O3676     Mg3688   2.311       .  S
Mg3677     O3693   2.286       .  S
O3678     Mg3694   2.296       .  S
H3679      C3684   1.081       .  S
O3680     Mg3688   2.117       .  S
O3680      C3683   1.229       .  S
H3681      C3683   1.081       .  S
H3682      C3685   1.082       .  S
O3687     Mg3694   2.378       .  S
C3690      O3695   1.273       .  A
O3691      C3692   1.279       .  A
C3692      C3858   1.469       .  S
O3697     Mg3699   2.173       .  S
O3697     Mg3705   2.172       .  S
O3697      C3732   1.234       .  S
C3698      O3711   1.267       .  A
C3698      O3735   1.282       .  A
C3698      H3737   1.082       .  S
Mg3699     O3728   2.156       .  S
Mg3699     O3743   2.261       .  S
Mg3699     O3739   2.231       .  S
Mg3699     O3710   2.264       .  S
O3700     Mg3742   2.200       .  S
O3700     Mg3725   2.252       .  S
O3700      C3721   1.271       .  A
O3701      C3732   1.272       .  A
O3701     Mg3725   2.325       .  S
C3702      O3704   1.278       .  A
C3702      O3716   1.277       .  A
O3703      C3731   1.263       .  A
O3703     Mg3705   2.287       .  S
O3704     Mg3736   2.285       .  S
Mg3705     O3711   2.334       .  S
Mg3705     O3719   2.309       .  S
Mg3705     O3707   2.246       .  S
C3706      O3744   1.265       .  A
C3706      O3712   1.276       .  A
O3707      C3714   1.268       .  A
H3708      C3721   1.082       .  S
C3709      O3724   1.274       .  A
C3709      H3734   1.081       .  S
C3709      O3723   1.240       .  S
O3710      C3733   1.261       .  A
O3711     Mg3725   2.275       .  S
O3712     Mg3742   2.366       .  S
C3713      O3726   1.267       .  A
C3713      O3718   1.273       .  A
C3714      O3741   1.265       .  A
Mg3715     O3722   2.143       .  S
Mg3715     O3723   2.114       .  S
Mg3715     O3716   2.300       .  S
Mg3715     O3717   2.359       .  S
Mg3715     O3744   2.216       .  S
O3717      C3721   1.281       .  A
O3718     Mg3725   2.317       .  S
O3719      C3738   1.276       .  A
O3720      C3740   1.280       .  A
O3720     Mg3736   2.343       .  S
O3722     Mg3736   2.207       .  S
O3722      C3733   1.260       .  A
O3723     Mg3742   2.131       .  S
O3724     Mg3736   2.300       .  S
Mg3725     O3741   2.283       .  S
O3726     Mg3742   2.260       .  S
H3727      C3732   1.081       .  S
O3728     Mg3736   2.128       .  S
O3728      C3731   1.230       .  S
H3729      C3731   1.081       .  S
H3730      C3733   1.082       .  S
O3735     Mg3742   2.385       .  S
C3738      O3743   1.272       .  A
O3739      C3740   1.276       .  A
O3745     Mg3747   2.159       .  S
O3745     Mg3753   2.112       .  S
O3745      C3780   1.240       .  S
C3746      O3759   1.256       .  A
C3746      O3783   1.258       .  A
C3746      H3785   1.082       .  S
Mg3747     O3776   2.209       .  S
Mg3747     O3791   2.377       .  S
Mg3747     O3787   2.262       .  S
Mg3747     O3758   2.368       .  S
O3748     Mg3790   2.166       .  S
O3748     Mg3773   2.118       .  S
O3748      C3769   1.230       .  S
O3749      C3780   1.275       .  A
O3749     Mg3773   2.308       .  S
C3750      O3752   1.267       .  A
C3750      O3764   1.256       .  A
C3750      C3802   1.487       .  S
O3751      C3779   1.279       .  A
O3751     Mg3753   2.349       .  S
O3752     Mg3784   2.339       .  S
Mg3753     O3759   2.129       .  S
Mg3753     O3767   2.164       .  S
Mg3753     O3755   2.291       .  S
C3754      O3792   1.266       .  A
C3754      O3760   1.271       .  A
C3754      C3850   1.460       .  S
O3755      C3762   1.273       .  A
H3756      C3769   1.081       .  S
C3757      O3772   1.274       .  A
C3757      H3782   1.081       .  S
C3757      O3771   1.235       .  S
O3758      C3781   1.278       .  A
O3759     Mg3773   2.196       .  S
O3760     Mg3790   2.258       .  S
C3761      O3774   1.274       .  A
C3761      O3766   1.280       .  A
C3762      O3789   1.277       .  A
Mg3763     O3770   2.297       .  S
Mg3763     O3771   2.162       .  S
Mg3763     O3764   2.210       .  S
Mg3763     O3765   2.280       .  S
Mg3763     O3792   2.219       .  S
O3765      C3769   1.262       .  A
O3766     Mg3773   2.338       .  S
O3767      C3786   1.258       .  A
O3768      C3788   1.276       .  A
O3768     Mg3784   2.314       .  S
O3770     Mg3784   2.257       .  S
O3770      C3781   1.264       .  A
O3771     Mg3790   2.153       .  S
O3772     Mg3784   2.337       .  S
Mg3773     O3789   2.278       .  S
O3774     Mg3790   2.210       .  S
H3775      C3780   1.081       .  S
O3776     Mg3784   2.250       .  S
O3776      C3779   1.271       .  A
H3777      C3779   1.082       .  S
H3778      C3781   1.082       .  S
O3783     Mg3790   2.266       .  S
C3786      O3791   1.277       .  A
O3787      C3788   1.271       .  A
O3793     Mg3795   2.132       .  S
O3793     Mg3801   2.123       .  S
O3793      C3828   1.241       .  S
C3794      O3807   1.259       .  A
C3794      O3831   1.261       .  A
C3794      H3833   1.082       .  S
Mg3795     O3824   2.203       .  S
Mg3795     O3839   2.361       .  S
Mg3795     O3835   2.260       .  S
Mg3795     O3806   2.385       .  S
O3796     Mg3838   2.155       .  S
O3796     Mg3821   2.120       .  S
O3796      C3817   1.230       .  S
O3797      C3828   1.274       .  A
O3797     Mg3821   2.304       .  S
C3798      O3800   1.266       .  A
C3798      O3812   1.269       .  A
C3798      C3846   1.487       .  S
O3799      C3827   1.279       .  A
O3799     Mg3801   2.353       .  S
O3800     Mg3832   2.278       .  S
Mg3801     O3807   2.145       .  S
Mg3801     O3815   2.215       .  S
Mg3801     O3803   2.291       .  S
C3802      O3840   1.276       .  A
C3802      O3808   1.269       .  A
O3803      C3810   1.275       .  A
H3804      C3817   1.081       .  S
C3805      O3820   1.272       .  A
C3805      H3830   1.081       .  S
C3805      O3819   1.233       .  S
O3806      C3829   1.282       .  A
O3807     Mg3821   2.205       .  S
O3808     Mg3838   2.246       .  S
C3809      O3822   1.276       .  A
C3809      O3814   1.280       .  A
C3810      O3837   1.276       .  A
Mg3811     O3818   2.338       .  S
Mg3811     O3819   2.175       .  S
Mg3811     O3812   2.259       .  S
Mg3811     O3813   2.289       .  S
Mg3811     O3840   2.315       .  S
O3813      C3817   1.264       .  A
O3814     Mg3821   2.344       .  S
O3815      C3834   1.265       .  A
O3816      C3836   1.274       .  A
O3816     Mg3832   2.321       .  S
O3818     Mg3832   2.273       .  S
O3818      C3829   1.267       .  A
O3819     Mg3838   2.176       .  S
O3820     Mg3832   2.324       .  S
Mg3821     O3837   2.272       .  S
O3822     Mg3838   2.227       .  S
H3823      C3828   1.081       .  S
O3824     Mg3832   2.252       .  S
O3824      C3827   1.269       .  A
H3825      C3827   1.082       .  S
H3826      C3829   1.082       .  S
O3831     Mg3838   2.265       .  S
C3834      O3839   1.276       .  A
O3835      C3836   1.266       .  A
C3836      C4326   1.471       .  S
O3841     Mg3843   2.169       .  S
O3841     Mg3849   2.106       .  S
O3841      C3876   1.242       .  S
C3842      O3855   1.256       .  A
C3842      O3879   1.259       .  A
C3842      H3881   1.082       .  S
Mg3843     O3872   2.209       .  S
Mg3843     O3887   2.379       .  S
Mg3843     O3883   2.302       .  S
Mg3843     O3854   2.374       .  S
O3844     Mg3886   2.165       .  S
O3844     Mg3869   2.116       .  S
O3844      C3865   1.229       .  S
O3845      C3876   1.277       .  A
O3845     Mg3869   2.321       .  S
C3846      O3848   1.263       .  A
C3846      O3860   1.264       .  A
O3847      C3875   1.277       .  A
O3847     Mg3849   2.351       .  S
O3848     Mg3880   2.284       .  S
Mg3849     O3855   2.141       .  S
Mg3849     O3863   2.175       .  S
Mg3849     O3851   2.270       .  S
C3850      O3888   1.269       .  A
C3850      O3856   1.275       .  A
O3851      C3858   1.272       .  A
H3852      C3865   1.081       .  S
C3853      O3868   1.272       .  A
C3853      H3878   1.081       .  S
C3853      O3867   1.234       .  S
O3854      C3877   1.279       .  A
O3855     Mg3869   2.200       .  S
O3856     Mg3886   2.277       .  S
C3857      O3870   1.281       .  A
C3857      O3862   1.282       .  A
C3858      O3885   1.276       .  A
Mg3859     O3866   2.293       .  S
Mg3859     O3867   2.184       .  S
Mg3859     O3860   2.243       .  S
Mg3859     O3861   2.274       .  S
Mg3859     O3888   2.215       .  S
O3861      C3865   1.261       .  A
O3862     Mg3869   2.336       .  S
O3863      C3882   1.258       .  A
O3864      C3884   1.268       .  A
O3864     Mg3880   2.261       .  S
O3866     Mg3880   2.265       .  S
O3866      C3877   1.266       .  A
O3867     Mg3886   2.177       .  S
O3868     Mg3880   2.322       .  S
Mg3869     O3885   2.295       .  S
O3870     Mg3886   2.276       .  S
H3871      C3876   1.081       .  S
O3872     Mg3880   2.225       .  S
O3872      C3875   1.267       .  A
H3873      C3875   1.082       .  S
H3874      C3877   1.082       .  S
O3879     Mg3886   2.273       .  S
C3882      O3887   1.275       .  A
O3883      C3884   1.271       .  A
C3884      C4330   1.463       .  S
O3889     Mg3891   2.182       .  S
O3889     Mg3897   2.178       .  S
O3889      C3924   1.234       .  S
C3890      O3903   1.268       .  A
C3890      O3927   1.283       .  A
C3890      H3929   1.082       .  S
Mg3891     O3920   2.163       .  S
Mg3891     O3935   2.259       .  S
Mg3891     O3931   2.238       .  S
Mg3891     O3902   2.267       .  S
O3892     Mg3934   2.202       .  S
O3892     Mg3917   2.240       .  S
O3892      C3913   1.268       .  A
O3893      C3924   1.271       .  A
O3893     Mg3917   2.319       .  S
C3894      O3896   1.280       .  A
C3894      O3908   1.274       .  A
O3895      C3923   1.264       .  A
O3895     Mg3897   2.291       .  S
O3896     Mg3928   2.314       .  S
Mg3897     O3903   2.329       .  S
Mg3897     O3911   2.311       .  S
Mg3897     O3899   2.273       .  S
C3898      O3936   1.262       .  A
C3898      O3904   1.278       .  A
O3899      C3906   1.270       .  A
H3900      C3913   1.082       .  S
C3901      O3916   1.276       .  A
C3901      H3926   1.081       .  S
C3901      O3915   1.241       .  S
O3902      C3925   1.261       .  A
O3903     Mg3917   2.268       .  S
O3904     Mg3934   2.376       .  S
C3905      O3918   1.270       .  A
C3905      O3910   1.269       .  A
C3906      O3933   1.263       .  A
C3906      C3954   1.486   1_554  S
Mg3907     O3914   2.147       .  S
Mg3907     O3915   2.121       .  S
Mg3907     O3908   2.279       .  S
Mg3907     O3909   2.350       .  S
Mg3907     O3936   2.194       .  S
O3909      C3913   1.278       .  A
O3910     Mg3917   2.282       .  S
O3911      C3930   1.275       .  A
O3912      C3932   1.283       .  A
O3912     Mg3928   2.361       .  S
O3914     Mg3928   2.209       .  S
O3914      C3925   1.259       .  A
O3915     Mg3934   2.149       .  S
O3916     Mg3928   2.312       .  S
Mg3917     O3933   2.266       .  S
O3918     Mg3934   2.313       .  S
H3919      C3924   1.081       .  S
O3920     Mg3928   2.137       .  S
O3920      C3923   1.230       .  S
H3921      C3923   1.081       .  S
H3922      C3925   1.082       .  S
O3927     Mg3934   2.390       .  S
C3930      O3935   1.272       .  A
C3930      C4002   1.488       .  S
O3931      C3932   1.277       .  A
C3932      C4554   1.473       .  S
O3937     Mg3939   2.159       .  S
O3937     Mg3945   2.171       .  S
O3937      C3972   1.233       .  S
C3938      O3951   1.265       .  A
C3938      O3975   1.279       .  A
C3938      H3977   1.082       .  S
Mg3939     O3968   2.164       .  S
Mg3939     O3983   2.268       .  S
Mg3939     O3979   2.226       .  S
Mg3939     O3950   2.263       .  S
O3940     Mg3982   2.201       .  S
O3940     Mg3965   2.244       .  S
O3940      C3961   1.270       .  A
O3941      C3972   1.271       .  A
O3941     Mg3965   2.322       .  S
C3942      O3944   1.279       .  A
C3942      O3956   1.273       .  A
O3943      C3971   1.262       .  A
O3943     Mg3945   2.279       .  S
O3944     Mg3976   2.300       .  S
Mg3945     O3951   2.299       .  S
Mg3945     O3959   2.231       .  S
Mg3945     O3947   2.234       .  S
C3946      O3984   1.259       .  A
C3946      O3952   1.274       .  A
O3947      C3954   1.262       .  A
H3948      C3961   1.082       .  S
C3949      O3964   1.275       .  A
C3949      H3974   1.081       .  S
C3949      O3963   1.241       .  S
O3950      C3973   1.259       .  A
O3951     Mg3965   2.266       .  S
O3952     Mg3982   2.370       .  S
C3953      O3966   1.270       .  A
C3953      O3958   1.272       .  A
C3954      O3981   1.265       .  A
Mg3955     O3962   2.134       .  S
Mg3955     O3963   2.110       .  S
Mg3955     O3956   2.283       .  S
Mg3955     O3957   2.357       .  S
Mg3955     O3984   2.177       .  S
O3957      C3961   1.280       .  A
O3958     Mg3965   2.300       .  S
O3959      C3978   1.270       .  A
O3960      C3980   1.282       .  A
O3960     Mg3976   2.346       .  S
O3962     Mg3976   2.203       .  S
O3962      C3973   1.257       .  A
O3963     Mg3982   2.160       .  S
O3964     Mg3976   2.309       .  S
Mg3965     O3981   2.293       .  S
O3966     Mg3982   2.270       .  S
H3967      C3972   1.081       .  S
O3968     Mg3976   2.126       .  S
O3968      C3971   1.229       .  S
H3969      C3971   1.081       .  S
H3970      C3973   1.082       .  S
O3975     Mg3982   2.371       .  S
C3978      O3983   1.273       .  A
C3978      C4026   1.463       .  S
O3979      C3980   1.276       .  A
O3985     Mg3987   2.185       .  S
O3985     Mg3993   2.169       .  S
O3985      C4020   1.236   1_556  S
C3986      O3999   1.262       .  A
C3986      O4023   1.275       .  A
C3986      H4025   1.083       .  S
Mg3987     O4016   2.175       .  S
Mg3987     O4031   2.269       .  S
Mg3987     O4027   2.278       .  S
Mg3987     O3998   2.268       .  S
O3988     Mg4030   2.233       .  S
O3988     Mg4013   2.244       .  S
O3988      C4009   1.271       .  A
O3989      C4020   1.276       .  A
O3989     Mg4013   2.347       .  S
C3990      O3992   1.277       .  A
C3990      O4004   1.272       .  A
O3991      C4019   1.263       .  A
O3991     Mg3993   2.280       .  S
O3992     Mg4024   2.299       .  S
Mg3993     O3999   2.303   1_556  S
Mg3993     O4007   2.219       .  S
Mg3993     O3995   2.221   1_556  S
C3994      O4032   1.259       .  A
C3994      O4000   1.276       .  A
O3995      C4002   1.259       .  A
H3996      C4009   1.082       .  S
C3997      O4012   1.278       .  A
C3997      H4022   1.081   1_556  S
C3997      O4011   1.243   1_556  S
O3998      C4021   1.257       .  A
O3999     Mg4013   2.262       .  S
O4000     Mg4030   2.366       .  S
C4001      O4014   1.272       .  A
C4001      O4006   1.278       .  A
C4001      C4530   1.469       .  S
C4002      O4029   1.265       .  A
Mg4003     O4010   2.120   1_554  S
Mg4003     O4011   2.121       .  S
Mg4003     O4004   2.283   1_554  S
Mg4003     O4005   2.328       .  S
Mg4003     O4032   2.153       .  S
O4005      C4009   1.277       .  A
O4006     Mg4013   2.326       .  S
O4007      C4026   1.267       .  A
O4008      C4028   1.282       .  A
O4008     Mg4024   2.333       .  S
O4010     Mg4024   2.180       .  S
O4010      C4021   1.255       .  A
O4011     Mg4030   2.163       .  S
O4012     Mg4024   2.318       .  S
Mg4013     O4029   2.330       .  S
O4014     Mg4030   2.257       .  S
H4015      C4020   1.081       .  S
O4016     Mg4024   2.121       .  S
O4016      C4019   1.230       .  S
H4017      C4019   1.081       .  S
H4018      C4021   1.082       .  S
O4023     Mg4030   2.361       .  S
C4026      O4031   1.274       .  A
O4027      C4028   1.282       .  A
O4033     Mg4035   2.179       .  S
O4033     Mg4041   2.171       .  S
O4033      C4068   1.236       .  S
C4034      O4047   1.262       .  A
C4034      O4071   1.275       .  A
C4034      H4073   1.083       .  S
Mg4035     O4064   2.176       .  S
Mg4035     O4079   2.271       .  S
Mg4035     O4075   2.273       .  S
Mg4035     O4046   2.270       .  S
O4036     Mg4078   2.229       .  S
O4036     Mg4061   2.240       .  S
O4036      C4057   1.270       .  A
O4037      C4068   1.276       .  A
O4037     Mg4061   2.345       .  S
C4038      O4040   1.278       .  A
C4038      O4052   1.271       .  A
O4039      C4067   1.263       .  A
O4039     Mg4041   2.279       .  S
O4040     Mg4072   2.305       .  S
Mg4041     O4047   2.293       .  S
Mg4041     O4055   2.208       .  S
Mg4041     O4043   2.218       .  S
C4042      O4080   1.260       .  A
C4042      O4048   1.276       .  A
O4043      C4050   1.258       .  A
H4044      C4057   1.082       .  S
C4045      O4060   1.277       .  A
C4045      H4070   1.081       .  S
C4045      O4059   1.243       .  S
O4046      C4069   1.257       .  A
O4047     Mg4061   2.257       .  S
O4048     Mg4078   2.367       .  S
C4049      O4062   1.271       .  A
C4049      O4054   1.276       .  A
C4049      C4482   1.461       .  S
C4050      O4077   1.265       .  A
C4050      C4170   1.487       .  S
Mg4051     O4058   2.126       .  S
Mg4051     O4059   2.118       .  S
Mg4051     O4052   2.275       .  S
Mg4051     O4053   2.327       .  S
Mg4051     O4080   2.163       .  S
O4053      C4057   1.276       .  A
O4054     Mg4061   2.313       .  S
O4055      C4074   1.265       .  A
O4056      C4076   1.282       .  A
O4056     Mg4072   2.333       .  S
O4058     Mg4072   2.183       .  S
O4058      C4069   1.255       .  A
O4059     Mg4078   2.152       .  S
O4060     Mg4072   2.315       .  S
Mg4061     O4077   2.330       .  S
O4062     Mg4078   2.246       .  S
H4063      C4068   1.081       .  S
O4064     Mg4072   2.123       .  S
O4064      C4067   1.231       .  S
H4065      C4067   1.081       .  S
H4066      C4069   1.082       .  S
O4071     Mg4078   2.361       .  S
C4074      O4079   1.274       .  A
C4074      C4122   1.462       .  S
O4075      C4076   1.281       .  A
O4081     Mg4083   2.158       .  S
O4081     Mg4089   2.171       .  S
O4081      C4116   1.234       .  S
C4082      O4095   1.266       .  A
C4082      O4119   1.279       .  A
C4082      H4121   1.082       .  S
Mg4083     O4112   2.165       .  S
Mg4083     O4127   2.260       .  S
Mg4083     O4123   2.226       .  S
Mg4083     O4094   2.263       .  S
O4084     Mg4126   2.199       .  S
O4084     Mg4109   2.242       .  S
O4084      C4105   1.269       .  A
O4085      C4116   1.271       .  A
O4085     Mg4109   2.322       .  S
C4086      O4088   1.277       .  A
C4086      O4100   1.274       .  A
O4087      C4115   1.262       .  A
O4087     Mg4089   2.278       .  S
O4088     Mg4120   2.284       .  S
Mg4089     O4095   2.297       .  S
Mg4089     O4103   2.227       .  S
Mg4089     O4091   2.226       .  S
C4090      O4128   1.259       .  A
C4090      O4096   1.274       .  A
O4091      C4098   1.261       .  A
H4092      C4105   1.082       .  S
C4093      O4108   1.275       .  A
C4093      H4118   1.081       .  S
C4093      O4107   1.241       .  S
O4094      C4117   1.258       .  A
O4095     Mg4109   2.268       .  S
O4096     Mg4126   2.374       .  S
C4097      O4110   1.270       .  A
C4097      O4102   1.271       .  A
C4098      O4125   1.265       .  A
C4098      C4146   1.486       .  S
Mg4099     O4106   2.129       .  S
Mg4099     O4107   2.110       .  S
Mg4099     O4100   2.287       .  S
Mg4099     O4101   2.356       .  S
Mg4099     O4128   2.175       .  S
O4101      C4105   1.279       .  A
O4102     Mg4109   2.295       .  S
O4103      C4122   1.269       .  A
O4104      C4124   1.280       .  A
O4104     Mg4120   2.335       .  S
O4106     Mg4120   2.201       .  S
O4106      C4117   1.257       .  A
O4107     Mg4126   2.161       .  S
O4108     Mg4120   2.310       .  S
Mg4109     O4125   2.296       .  S
O4110     Mg4126   2.270       .  S
H4111      C4116   1.081       .  S
O4112     Mg4120   2.121       .  S
O4112      C4115   1.229       .  S
H4113      C4115   1.081       .  S
H4114      C4117   1.082       .  S
O4119     Mg4126   2.372       .  S
C4122      O4127   1.272       .  A
O4123      C4124   1.276       .  A
O4129     Mg4131   2.187       .  S
O4129     Mg4137   2.179       .  S
O4129      C4164   1.234       .  S
C4130      O4143   1.267       .  A
C4130      O4167   1.282       .  A
C4130      H4169   1.082       .  S
Mg4131     O4160   2.165       .  S
Mg4131     O4175   2.261       .  S
Mg4131     O4171   2.242       .  S
Mg4131     O4142   2.267       .  S
O4132     Mg4174   2.207       .  S
O4132     Mg4157   2.234       .  S
O4132      C4153   1.269       .  A
O4133      C4164   1.272       .  A
O4133     Mg4157   2.321       .  S
C4134      O4136   1.282       .  A
C4134      O4148   1.272       .  A
O4135      C4163   1.264       .  A
O4135     Mg4137   2.291       .  S
O4136     Mg4168   2.323       .  S
Mg4137     O4143   2.328       .  S
Mg4137     O4151   2.310       .  S
Mg4137     O4139   2.269       .  S
C4138      O4176   1.260       .  A
C4138      O4144   1.276       .  A
O4139      C4146   1.270       .  A
H4140      C4153   1.082       .  S
C4141      O4156   1.275       .  A
C4141      H4166   1.081       .  S
C4141      O4155   1.240       .  S
O4142      C4165   1.261       .  A
O4143     Mg4157   2.274       .  S
O4144     Mg4174   2.354       .  S
C4145      O4158   1.269       .  A
C4145      O4150   1.270       .  A
C4146      O4173   1.263       .  A
Mg4147     O4154   2.144       .  S
Mg4147     O4155   2.122       .  S
Mg4147     O4148   2.273       .  S
Mg4147     O4149   2.348       .  S
Mg4147     O4176   2.186       .  S
O4149      C4153   1.278       .  A
O4150     Mg4157   2.285       .  S
O4151      C4170   1.276       .  A
O4152      C4172   1.283       .  A
O4152     Mg4168   2.357       .  S
O4154     Mg4168   2.207       .  S
O4154      C4165   1.259       .  A
O4155     Mg4174   2.150       .  S
O4156     Mg4168   2.309       .  S
Mg4157     O4173   2.264       .  S
O4158     Mg4174   2.310       .  S
H4159      C4164   1.081       .  S
O4160     Mg4168   2.140       .  S
O4160      C4163   1.229       .  S
H4161      C4163   1.081       .  S
H4162      C4165   1.082       .  S
O4167     Mg4174   2.384       .  S
C4170      O4175   1.272       .  A
O4171      C4172   1.278       .  A
C4172      C4506   1.472       .  S
O4177     Mg4179   2.165       .  S
O4177     Mg4185   2.165       .  S
O4177      C4212   1.234   1_554  S
C4178      O4191   1.264       .  A
C4178      O4215   1.277       .  A
C4178      H4217   1.082       .  S
Mg4179     O4208   2.163       .  S
Mg4179     O4223   2.247       .  S
Mg4179     O4219   2.225       .  S
Mg4179     O4190   2.264       .  S
O4180     Mg4222   2.224       .  S
O4180     Mg4205   2.248       .  S
O4180      C4201   1.270       .  A
O4181      C4212   1.273       .  A
O4181     Mg4205   2.329       .  S
C4182      O4184   1.276       .  A
C4182      O4196   1.274       .  A
O4183      C4211   1.263       .  A
O4183     Mg4185   2.284       .  S
O4184     Mg4216   2.292       .  S
Mg4185     O4191   2.313   1_554  S
Mg4185     O4199   2.241       .  S
Mg4185     O4187   2.235   1_554  S
C4186      O4224   1.261       .  A
C4186      O4192   1.277       .  A
O4187      C4194   1.261       .  A
H4188      C4201   1.082       .  S
C4189      O4204   1.278       .  A
C4189      H4214   1.081       .  S
C4189      O4203   1.243   1_554  S
O4190      C4213   1.258       .  A
O4191     Mg4205   2.266       .  S
O4192     Mg4222   2.373       .  S
C4193      O4206   1.272       .  A
C4193      O4198   1.277       .  A
C4194      O4221   1.267       .  A
C4194      C4242   1.487       .  S
Mg4195     O4202   2.131       .  S
Mg4195     O4203   2.123   1_554  S
Mg4195     O4196   2.281       .  S
Mg4195     O4197   2.338   1_554  S
Mg4195     O4224   2.177   1_554  S
O4197      C4201   1.278       .  A
O4198     Mg4205   2.317       .  S
O4199      C4218   1.269       .  A
O4200      C4220   1.282       .  A
O4200     Mg4216   2.353       .  S
O4202     Mg4216   2.196       .  S
O4202      C4213   1.257       .  A
O4203     Mg4222   2.161       .  S
O4204     Mg4216   2.319       .  S
Mg4205     O4221   2.306       .  S
O4206     Mg4222   2.275       .  S
H4207      C4212   1.081       .  S
O4208     Mg4216   2.115       .  S
O4208      C4211   1.230       .  S
H4209      C4211   1.081       .  S
H4210      C4213   1.082       .  S
O4215     Mg4222   2.369       .  S
C4218      O4223   1.270       .  A
C4218      C4314   1.467       .  S
O4219      C4220   1.276       .  A
O4225     Mg4227   2.189       .  S
O4225     Mg4233   2.179       .  S
O4225      C4260   1.235       .  S
C4226      O4239   1.266       .  A
C4226      O4263   1.280       .  A
C4226      H4265   1.082       .  S
Mg4227     O4256   2.168       .  S
Mg4227     O4271   2.261       .  S
Mg4227     O4267   2.240       .  S
Mg4227     O4238   2.267       .  S
O4228     Mg4270   2.222       .  S
O4228     Mg4253   2.228       .  S
O4228      C4249   1.269       .  A
O4229      C4260   1.273       .  A
O4229     Mg4253   2.328       .  S
C4230      O4232   1.281       .  A
C4230      O4244   1.272       .  A
O4231      C4259   1.265       .  A
O4231     Mg4233   2.295       .  S
O4232     Mg4264   2.325       .  S
Mg4233     O4239   2.333       .  S
Mg4233     O4247   2.311       .  S
Mg4233     O4235   2.256       .  S
C4234      O4272   1.260       .  A
C4234      O4240   1.278       .  A
O4235      C4242   1.269       .  A
H4236      C4249   1.082       .  S
C4237      O4252   1.276       .  A
C4237      H4262   1.081       .  S
C4237      O4251   1.242       .  S
O4238      C4261   1.259       .  A
O4239     Mg4253   2.281       .  S
O4240     Mg4270   2.370       .  S
C4241      O4254   1.272       .  A
C4241      O4246   1.271       .  A
C4242      O4269   1.261       .  A
Mg4243     O4250   2.135       .  S
Mg4243     O4251   2.127       .  S
Mg4243     O4244   2.274       .  S
Mg4243     O4245   2.333       .  S
Mg4243     O4272   2.166       .  S
O4245      C4249   1.276       .  A
O4246     Mg4253   2.284       .  S
O4247      C4266   1.275       .  A
O4248      C4268   1.283       .  A
O4248     Mg4264   2.362       .  S
O4250     Mg4264   2.198       .  S
O4250      C4261   1.258       .  A
O4251     Mg4270   2.158       .  S
O4252     Mg4264   2.312       .  S
Mg4253     O4269   2.264       .  S
O4254     Mg4270   2.310       .  S
H4255      C4260   1.081       .  S
O4256     Mg4264   2.143       .  S
O4256      C4259   1.230       .  S
H4257      C4259   1.081       .  S
H4258      C4261   1.082       .  S
O4263     Mg4270   2.381       .  S
C4266      O4271   1.272       .  A
C4266      C4290   1.489   1_556  S
O4267      C4268   1.278       .  A
O4273     Mg4275   2.180       .  S
O4273     Mg4281   2.178       .  S
O4273      C4308   1.236       .  S
C4274      O4287   1.265       .  A
C4274      O4311   1.278       .  A
C4274      H4313   1.082       .  S
Mg4275     O4304   2.172       .  S
Mg4275     O4319   2.292       .  S
Mg4275     O4315   2.283       .  S
Mg4275     O4286   2.269       .  S
O4276     Mg4318   2.202       .  S
O4276     Mg4301   2.239       .  S
O4276      C4297   1.271       .  A
O4277      C4308   1.275       .  A
O4277     Mg4301   2.345       .  S
C4278      O4280   1.279       .  A
C4278      O4292   1.278       .  A
C4278      C4556   1.476       .  S
O4279      C4307   1.261       .  A
O4279     Mg4281   2.275       .  S
O4280     Mg4312   2.297       .  S
Mg4281     O4287   2.304       .  S
Mg4281     O4295   2.216       .  S
Mg4281     O4283   2.215       .  S
C4282      O4320   1.265       .  A
C4282      O4288   1.274       .  A
C4282      C4508   1.466       .  S
O4283      C4290   1.259       .  A
H4284      C4297   1.082       .  S
C4285      O4300   1.276       .  A
C4285      H4310   1.081       .  S
C4285      O4299   1.243       .  S
O4286      C4309   1.258       .  A
O4287     Mg4301   2.262       .  S
O4288     Mg4318   2.353       .  S
C4289      O4302   1.269       .  A
C4289      O4294   1.276       .  A
C4290      O4317   1.265       .  A
Mg4291     O4298   2.138       .  S
Mg4291     O4299   2.113       .  S
Mg4291     O4292   2.315       .  S
Mg4291     O4293   2.350       .  S
Mg4291     O4320   2.210       .  S
O4293      C4297   1.280       .  A
O4294     Mg4301   2.324       .  S
O4295      C4314   1.267       .  A
O4296      C4316   1.283       .  A
O4296     Mg4312   2.337       .  S
O4298     Mg4312   2.186       .  S
O4298      C4309   1.255       .  A
O4299     Mg4318   2.146       .  S
O4300     Mg4312   2.308       .  S
Mg4301     O4317   2.328       .  S
O4302     Mg4318   2.254       .  S
H4303      C4308   1.081       .  S
O4304     Mg4312   2.129       .  S
O4304      C4307   1.229       .  S
H4305      C4307   1.081       .  S
H4306      C4309   1.082       .  S
O4311     Mg4318   2.371       .  S
C4314      O4319   1.277       .  A
O4315      C4316   1.283       .  A
O4321     Mg4323   2.159       .  S
O4321     Mg4329   2.169       .  S
O4321      C4356   1.233       .  S
C4322      O4335   1.266       .  A
C4322      O4359   1.279       .  A
C4322      H4361   1.082       .  S
Mg4323     O4352   2.158       .  S
Mg4323     O4367   2.256       .  S
Mg4323     O4363   2.223       .  S
Mg4323     O4334   2.261       .  S
O4324     Mg4366   2.195       .  S
O4324     Mg4349   2.249       .  S
O4324      C4345   1.270       .  A
O4325      C4356   1.270       .  A
O4325     Mg4349   2.318       .  S
C4326      O4328   1.280       .  A
C4326      O4340   1.276       .  A
O4327      C4355   1.263       .  A
O4327     Mg4329   2.280       .  S
O4328     Mg4360   2.293       .  S
Mg4329     O4335   2.290       .  S
Mg4329     O4343   2.229       .  S
Mg4329     O4331   2.238       .  S
C4330      O4368   1.261       .  A
C4330      O4336   1.272       .  A
O4331      C4338   1.263       .  A
H4332      C4345   1.082       .  S
C4333      O4348   1.273       .  A
C4333      H4358   1.081       .  S
C4333      O4347   1.239       .  S
O4334      C4357   1.260       .  A
O4335     Mg4349   2.264       .  S
O4336     Mg4366   2.355       .  S
C4337      O4350   1.267       .  A
C4337      O4342   1.270       .  A
C4338      O4365   1.266       .  A
C4338      C4386   1.486       .  S
Mg4339     O4346   2.139       .  S
Mg4339     O4347   2.109       .  S
Mg4339     O4340   2.299       .  S
Mg4339     O4341   2.368       .  S
Mg4339     O4368   2.200       .  S
O4341      C4345   1.282       .  A
O4342     Mg4349   2.293       .  S
O4343      C4362   1.269       .  A
O4344      C4364   1.281       .  A
O4344     Mg4360   2.343       .  S
O4346     Mg4360   2.207       .  S
O4346      C4357   1.259       .  A
O4347     Mg4366   2.148       .  S
O4348     Mg4360   2.305       .  S
Mg4349     O4365   2.295       .  S
O4350     Mg4366   2.256       .  S
H4351      C4356   1.081       .  S
O4352     Mg4360   2.122       .  S
O4352      C4355   1.230       .  S
H4353      C4355   1.081       .  S
H4354      C4357   1.082       .  S
O4359     Mg4366   2.372       .  S
C4362      O4367   1.271       .  A
C4362      C4458   1.462       .  S
O4363      C4364   1.275       .  A
C4364      C4602   1.464       .  S
O4369     Mg4371   2.172       .  S
O4369     Mg4377   2.173       .  S
O4369      C4404   1.235       .  S
C4370      O4383   1.266       .  A
C4370      O4407   1.281       .  A
C4370      H4409   1.082       .  S
Mg4371     O4400   2.165       .  S
Mg4371     O4415   2.262       .  S
Mg4371     O4411   2.227       .  S
Mg4371     O4382   2.266       .  S
O4372     Mg4414   2.219       .  S
O4372     Mg4397   2.233       .  S
O4372      C4393   1.268       .  A
O4373      C4404   1.272       .  A
O4373     Mg4397   2.323       .  S
C4374      O4376   1.279       .  A
C4374      O4388   1.272       .  A
O4375      C4403   1.264       .  A
O4375     Mg4377   2.292       .  S
O4376     Mg4408   2.313       .  S
Mg4377     O4383   2.329       .  S
Mg4377     O4391   2.302       .  S
Mg4377     O4379   2.241       .  S
C4378      O4416   1.259       .  A
C4378      O4384   1.278       .  A
O4379      C4386   1.267       .  A
H4380      C4393   1.082       .  S
C4381      O4396   1.275       .  A
C4381      H4406   1.081       .  S
C4381      O4395   1.241       .  S
O4382      C4405   1.260       .  A
O4383     Mg4397   2.283       .  S
O4384     Mg4414   2.380       .  S
C4385      O4398   1.270       .  A
C4385      O4390   1.270       .  A
C4386      O4413   1.262       .  A
Mg4387     O4394   2.131       .  S
Mg4387     O4395   2.119       .  S
Mg4387     O4388   2.274       .  S
Mg4387     O4389   2.341       .  S
Mg4387     O4416   2.156       .  S
O4389      C4393   1.277       .  A
O4390     Mg4397   2.277       .  S
O4391      C4410   1.275       .  A
O4392      C4412   1.280       .  A
O4392     Mg4408   2.342       .  S
O4394     Mg4408   2.202       .  S
O4394      C4405   1.258       .  A
O4395     Mg4414   2.154       .  S
O4396     Mg4408   2.309       .  S
Mg4397     O4413   2.275       .  S
O4398     Mg4414   2.299       .  S
H4399      C4404   1.081       .  S
O4400     Mg4408   2.139       .  S
O4400      C4403   1.230       .  S
H4401      C4403   1.081       .  S
H4402      C4405   1.082       .  S
O4407     Mg4414   2.382       .  S
C4410      O4415   1.272       .  A
C4410      C4434   1.484       .  S
O4411      C4412   1.277       .  A
O4417     Mg4419   2.160       .  S
O4417     Mg4425   2.173       .  S
O4417      C4452   1.235       .  S
C4418      O4431   1.264       .  A
C4418      O4455   1.277       .  A
C4418      H4457   1.082       .  S
Mg4419     O4448   2.162       .  S
Mg4419     O4463   2.286       .  S
Mg4419     O4459   2.258       .  S
Mg4419     O4430   2.258       .  S
O4420     Mg4462   2.200       .  S
O4420     Mg4445   2.238       .  S
O4420      C4441   1.271       .  A
O4421      C4452   1.274       .  A
O4421     Mg4445   2.336       .  S
C4422      O4424   1.278       .  A
C4422      O4436   1.275       .  A
O4423      C4451   1.261       .  A
O4423     Mg4425   2.276       .  S
O4424     Mg4456   2.296       .  S
Mg4425     O4431   2.287       .  S
Mg4425     O4439   2.204       .  S
Mg4425     O4427   2.221       .  S
C4426      O4464   1.264       .  A
C4426      O4432   1.273       .  A
O4427      C4434   1.258       .  A
H4428      C4441   1.082       .  S
C4429      O4444   1.273       .  A
C4429      H4454   1.081       .  S
C4429      O4443   1.240       .  S
O4430      C4453   1.260       .  A
O4431     Mg4445   2.256       .  S
O4432     Mg4462   2.345       .  S
C4433      O4446   1.268       .  A
C4433      O4438   1.274       .  A
C4434      O4461   1.264       .  A
Mg4435     O4442   2.075       .  S
Mg4435     O4443   2.113       .  S
Mg4435     O4436   2.296       .  S
Mg4435     O4437   2.349       .  S
Mg4435     O4464   2.208       .  S
O4437      C4441   1.280       .  A
O4438     Mg4445   2.308       .  S
O4439      C4458   1.266       .  A
O4440      C4460   1.282       .  A
O4440     Mg4456   2.327       .  S
O4442     Mg4456   2.125       .  S
O4442      C4453   1.229       .  S
O4443     Mg4462   2.142       .  S
O4444     Mg4456   2.299       .  S
Mg4445     O4461   2.318       .  S
O4446     Mg4462   2.246       .  S
H4447      C4452   1.081       .  S
O4448     Mg4456   2.130       .  S
O4448      C4451   1.229       .  S
H4449      C4451   1.081       .  S
H4450      C4453   1.081       .  S
O4455     Mg4462   2.368       .  S
C4458      O4463   1.275       .  A
O4459      C4460   1.278       .  A
C4460      C4578   1.466       .  S
O4465     Mg4467   2.160       .  S
O4465     Mg4473   2.124       .  S
O4465      C4500   1.242       .  S
C4466      O4503   1.260       .  A
C4466      H4505   1.081       .  S
C4466      O4479   1.230       .  S
Mg4467     O4496   2.219       .  S
Mg4467     O4511   2.388       .  S
Mg4467     O4507   2.316       .  S
Mg4467     O4478   2.380       .  S
O4468     Mg4510   2.149       .  S
O4468     Mg4493   2.105       .  S
O4468      C4489   1.228       .  S
O4469      C4500   1.276       .  A
O4469     Mg4493   2.308       .  S
C4470      O4472   1.263       .  A
C4470      O4484   1.263       .  A
C4470      C4518   1.490       .  S
O4471      C4499   1.277       .  A
O4471     Mg4473   2.338       .  S
O4472     Mg4504   2.296       .  S
Mg4473     O4479   2.071       .  S
Mg4473     O4487   2.177       .  S
Mg4473     O4475   2.283       .  S
C4474      O4512   1.269       .  A
C4474      O4480   1.274       .  A
C4474      C4570   1.459       .  S
O4475      C4482   1.273       .  A
H4476      C4489   1.081       .  S
C4477      O4492   1.273       .  A
C4477      H4502   1.081       .  S
C4477      O4491   1.235       .  S
O4478      C4501   1.279       .  A
O4479     Mg4493   2.120       .  S
O4480     Mg4510   2.263       .  S
C4481      O4494   1.282       .  A
C4481      O4486   1.281       .  A
C4482      O4509   1.273       .  A
Mg4483     O4490   2.300       .  S
Mg4483     O4491   2.183       .  S
Mg4483     O4484   2.244       .  S
Mg4483     O4485   2.273       .  S
Mg4483     O4512   2.214       .  S
O4485      C4489   1.260       .  A
O4486     Mg4493   2.332       .  S
O4487      C4506   1.262       .  A
O4488      C4508   1.268       .  A
O4488     Mg4504   2.261       .  S
O4490     Mg4504   2.259       .  S
O4490      C4501   1.265       .  A
O4491     Mg4510   2.180       .  S
O4492     Mg4504   2.325       .  S
Mg4493     O4509   2.260       .  S
O4494     Mg4510   2.291       .  S
H4495      C4500   1.081       .  S
O4496     Mg4504   2.238       .  S
O4496      C4499   1.269       .  A
H4497      C4499   1.082       .  S
H4498      C4501   1.082       .  S
O4503     Mg4510   2.255       .  S
C4506      O4511   1.281       .  A
O4507      C4508   1.274       .  A
O4513     Mg4515   2.139       .  S
O4513     Mg4521   2.123       .  S
O4513      C4548   1.242       .  S
C4514      O4527   1.258       .  A
C4514      O4551   1.260       .  A
C4514      H4553   1.082       .  S
Mg4515     O4544   2.215       .  S
Mg4515     O4559   2.393       .  S
Mg4515     O4555   2.272       .  S
Mg4515     O4526   2.388       .  S
O4516     Mg4558   2.161       .  S
O4516     Mg4541   2.113       .  S
O4516      C4537   1.229       .  S
O4517      C4548   1.275       .  A
O4517     Mg4541   2.303       .  S
C4518      O4520   1.265       .  A
C4518      O4532   1.269       .  A
O4519      C4547   1.278       .  A
O4519     Mg4521   2.340       .  S
O4520     Mg4552   2.282       .  S
Mg4521     O4527   2.130       .  S
Mg4521     O4535   2.170       .  S
Mg4521     O4523   2.293       .  S
C4522      O4560   1.277       .  A
C4522      O4528   1.271       .  A
C4522      C4566   1.487       .  S
O4523      C4530   1.274       .  A
H4524      C4537   1.081       .  S
C4525      O4540   1.275       .  A
C4525      H4550   1.081       .  S
C4525      O4539   1.235       .  S
O4526      C4549   1.282       .  A
O4527     Mg4541   2.188       .  S
O4528     Mg4558   2.252       .  S
C4529      O4542   1.282       .  A
C4529      O4534   1.280       .  A
C4530      O4557   1.276       .  A
Mg4531     O4538   2.355       .  S
Mg4531     O4539   2.184       .  S
Mg4531     O4532   2.264       .  S
Mg4531     O4533   2.286       .  S
Mg4531     O4560   2.318       .  S
O4533      C4537   1.263       .  A
O4534     Mg4541   2.320       .  S
O4535      C4554   1.261       .  A
O4536      C4556   1.276       .  A
O4536     Mg4552   2.332       .  S
O4538     Mg4552   2.273       .  S
O4538      C4549   1.266       .  A
O4539     Mg4558   2.208       .  S
O4540     Mg4552   2.336       .  S
Mg4541     O4557   2.279       .  S
O4542     Mg4558   2.292       .  S
H4543      C4548   1.081       .  S
O4544     Mg4552   2.250       .  S
O4544      C4547   1.270       .  A
H4545      C4547   1.082       .  S
H4546      C4549   1.082       .  S
O4551     Mg4558   2.268       .  S
C4554      O4559   1.280       .  A
O4555      C4556   1.271       .  A
O4561     Mg4563   2.168       .  S
O4561     Mg4569   2.121       .  S
O4561      C4596   1.244       .  S
C4562      O4575   1.255       .  A
C4562      O4599   1.256       .  A
C4562      H4601   1.083       .  S
Mg4563     O4592   2.236       .  S
Mg4563     O4607   2.352       .  S
Mg4563     O4603   2.287       .  S
Mg4563     O4574   2.362       .  S
O4564     Mg4606   2.166       .  S
O4564     Mg4589   2.115       .  S
O4564      C4585   1.230       .  S
O4565      C4596   1.278       .  A
O4565     Mg4589   2.321       .  S
C4566      O4568   1.264       .  A
C4566      O4580   1.256       .  A
O4567      C4595   1.277       .  A
O4567     Mg4569   2.329       .  S
O4568     Mg4600   2.335       .  S
Mg4569     O4575   2.128       .  S
Mg4569     O4583   2.179       .  S
Mg4569     O4571   2.283       .  S
C4570      O4608   1.265       .  A
C4570      O4576   1.272       .  A
O4571      C4578   1.275       .  A
H4572      C4585   1.081       .  S
C4573      O4588   1.274       .  A
C4573      H4598   1.081       .  S
C4573      O4587   1.236       .  S
O4574      C4597   1.275       .  A
O4575     Mg4589   2.190       .  S
O4576     Mg4606   2.257       .  S
C4577      O4590   1.277       .  A
C4577      O4582   1.282       .  A
C4578      O4605   1.276       .  A
Mg4579     O4586   2.292       .  S
Mg4579     O4587   2.166       .  S
Mg4579     O4580   2.206       .  S
Mg4579     O4581   2.279       .  S
Mg4579     O4608   2.205       .  S
O4581      C4585   1.263       .  A
O4582     Mg4589   2.358       .  S
O4583      C4602   1.262       .  A
O4584      C4604   1.274       .  A
O4584     Mg4600   2.275       .  S
O4586     Mg4600   2.264       .  S
O4586      C4597   1.262       .  A
O4587     Mg4606   2.157       .  S
O4588     Mg4600   2.336       .  S
Mg4589     O4605   2.282       .  S
O4590     Mg4606   2.222       .  S
H4591      C4596   1.081       .  S
O4592     Mg4600   2.234       .  S
O4592      C4595   1.271       .  A
H4593      C4595   1.082       .  S
H4594      C4597   1.083       .  S
O4599     Mg4606   2.267       .  S
C4602      O4607   1.275       .  A
O4603      C4604   1.272       .  A
