geometry optimzed in LAMMPS
_audit_creation_date              2020-12-01 
_audit_creation_method            'lammps2cif' 
_symmetry_space_group_name_H-M    'P1' 
_symmetry_Int_Tables_number       1 
_symmetry_cell_setting            triclinic 
loop_ 
_symmetry_equiv_pos_as_xyz 
  x,y,z 
_cell_length_a                    45.45719061 
_cell_length_b                    45.73054173360069 
_cell_length_c                    35.063311966822106 
_cell_angle_alpha                 90.04695413135185 
_cell_angle_beta                  90.0376997117488 
_cell_angle_gamma                 88.76901994175914 
loop_ 
_atom_site_label 
_atom_site_type_symbol 
_atom_site_fract_x 
_atom_site_fract_y 
_atom_site_fract_z 
_atom_site_charge 
O1          O  0.94758320  0.96306193  0.21366037    -0.81200
O2          O  0.03981844  0.05673515  0.17886766    -0.65900
O3          O  0.00287858  0.98317295  0.19377297    -1.12500
C4          C  0.01723886  0.00729418  0.32494502     1.05700
O5          O  0.07486599  0.04005793  0.21730934    -0.79100
O6          O  0.07339639  0.99441429  0.26532892    -0.66700
Ni7        Ni  0.96804992  0.97275524  0.16775722     1.34900
C8          C  0.06487748  0.96850673  0.25989154     0.84400
O9          O  0.01846781  0.01681302  0.12954539    -0.79600
O10         O  0.98587029  0.98108617  0.11977994    -0.89900
C11         C  0.06593970  0.05790360  0.19181022     0.84000
O12         O  0.94865821  0.01011510  0.16835249    -0.68100
O13         O  0.03672175  0.02472697  0.31269143    -0.87400
C14         C  0.95633309  0.03610796  0.17542352     0.84800
C15         C  0.00413140  0.99972213  0.10776800     1.06400
H16         H  0.00516688  0.03754065  0.24659125     0.38200
O17         O  0.01942288  0.02268863  0.23897172    -1.10000
O18         O  0.03837264  0.96280741  0.25129735    -0.66700
Ni19       Ni  0.00215337  0.98599443  0.24837521     1.26300
O20         O  0.98280085  0.04266215  0.18324267    -0.66900
O21         O  0.00227414  0.99073976  0.30312243    -0.79200
C22         C  0.95732653  0.94614277  0.23962677     0.84200
O23         O  0.98234691  0.94997495  0.25464912    -0.66400
Ni24       Ni  0.05469691  0.03208183  0.26421926     1.27400
Ni25       Ni  0.01960413  0.02043136  0.18446556     1.26100
H26         H  0.01756728  0.96859837  0.18664545     0.38800
O27         O  0.93181367  0.95752935  0.70867659    -0.81200
O28         O  0.02559730  0.05754785  0.67898434    -0.65900
O29         O  0.98521480  0.98501671  0.69305273    -1.12500
C30         C  0.99624082  0.01227061  0.82465630     1.05700
O31         O  0.05737629  0.04032290  0.72094146    -0.79100
O32         O  0.05239198  0.99845775  0.77399200    -0.66700
Ni33       Ni  0.94939207  0.97793189  0.66681015     1.34900
C34         C  0.04591893  0.97256112  0.76449667     0.84400
O35         O  0.00616618  0.01641377  0.63024030    -0.79600
O36         O  0.96282609  0.99548344  0.62032593    -0.89900
C37         C  0.05086890  0.05839144  0.69463966     0.84000
O38         O  0.93123156  0.01338631  0.68356820    -0.68100
O39         O  0.01277767  0.03244709  0.81253797    -0.87400
C40         C  0.94049795  0.03939720  0.68308753     0.84800
C41         C  0.98637660  0.00675559  0.60807941     1.06400
H42         H  0.98560960  0.03979224  0.74431445     0.38200
O43         O  0.00063576  0.02523328  0.73840549    -1.10000
O44         O  0.02109427  0.96642635  0.75010356    -0.66700
Ni45       Ni  0.98416434  0.98818542  0.74787329     1.26300
O46         O  0.96768760  0.04526774  0.67895550    -0.66900
O47         O  0.98475380  0.99292993  0.80298540    -0.79200
C48         C  0.94191574  0.94399874  0.73768629     0.84200
O49         O  0.96534415  0.95145002  0.75467200    -0.66400
Ni50       Ni  0.03424586  0.03612536  0.76610303     1.27400
Ni51       Ni  0.00381216  0.02178504  0.68432858     1.26100
H52         H  0.99893812  0.96958690  0.68576590     0.38800
O53         O  0.22899166  0.31967343  0.12130873    -0.81200
O54         O  0.31526147  0.22121244  0.07015067    -0.65900
O55         O  0.24424554  0.26468409  0.09212545    -1.12500
C56         C  0.26644249  0.23818425  0.22073174     1.05700
O57         O  0.29837161  0.18595033  0.10677523    -0.79100
O58         O  0.25214305  0.18842920  0.15363598    -0.66700
Ni59       Ni  0.23572824  0.30215476  0.07182725     1.34900
C60         C  0.22657780  0.19936346  0.14840283     0.84400
O61         O  0.27463226  0.24972729  0.02565023    -0.79600
O62         O  0.24151466  0.28712021  0.02109860    -0.89900
C63         C  0.31570608  0.19452882  0.08078162     0.84000
O64         O  0.27443266  0.31717597  0.07180048    -0.68100
O65         O  0.28365158  0.21842198  0.20675260    -0.87400
C66         C  0.30034083  0.30657328  0.07525102     0.84800
C67         C  0.25784160  0.26703326  0.00620921     1.06400
H68         H  0.29881134  0.25350133  0.14308724     0.38200
O69         O  0.28322784  0.24114337  0.13427550    -1.10000
O70         O  0.22195520  0.22670126  0.14363651    -0.66700
Ni71       Ni  0.24688646  0.26063500  0.14610510     1.26300
O72         O  0.30545258  0.27925556  0.08075973    -0.66900
O73         O  0.25095167  0.25567212  0.20015843    -0.79200
C74         C  0.21177165  0.31021881  0.14693385     0.84200
O75         O  0.21173298  0.28324623  0.15530871    -0.66400
Ni76       Ni  0.29080065  0.20365010  0.15579554     1.27400
Ni77       Ni  0.28027656  0.24493692  0.07983888     1.26100
H78         H  0.22864568  0.25241117  0.08312683     0.38800
O79         O  0.20864316  0.31913377  0.61177870    -0.81200
O80         O  0.30103988  0.21925257  0.57452817    -0.65900
O81         O  0.22892415  0.26237415  0.59141341    -1.12500
C82         C  0.25396663  0.24382970  0.72174029     1.05700
O83         O  0.28552929  0.18468543  0.61272610    -0.79100
O84         O  0.23840307  0.19008555  0.65858699    -0.66700
Ni85       Ni  0.22189647  0.29891268  0.56624145     1.34900
C86         C  0.21265532  0.20082297  0.65408195     0.84400
O87         O  0.26087116  0.24197641  0.52712489    -0.79600
O88         O  0.23351262  0.28263207  0.51740910    -0.89900
C89         C  0.30298289  0.19326582  0.58696219     0.84000
O90         O  0.25983594  0.31475647  0.57430591    -0.68100
O91         O  0.26976933  0.22273630  0.70853294    -0.87400
C92         C  0.28529542  0.30311549  0.57767180     0.84800
C93         C  0.24817066  0.26040898  0.50508693     1.06400
H94         H  0.28428321  0.25437183  0.64285398     0.38200
O95         O  0.26857181  0.24161100  0.63554235    -1.10000
O96         O  0.20768221  0.22799106  0.64819527    -0.66700
Ni97       Ni  0.23244217  0.26208089  0.64608614     1.26300
O98         O  0.28971424  0.27557892  0.57925579    -0.66900
O99         O  0.23806020  0.26079945  0.70075457    -0.79200
C100        C  0.19418302  0.31092652  0.64083308     0.84200
O101        O  0.19704526  0.28514503  0.65411442    -0.66400
Ni102      Ni  0.27699508  0.20524230  0.65969029     1.27400
Ni103      Ni  0.26529254  0.24162569  0.58141829     1.26100
H104        H  0.21309928  0.24979359  0.58400065     0.38800
O105        O  0.30363939  0.68740037  0.37449517    -0.81200
O106        O  0.21162301  0.78596324  0.33024264    -0.65900
O107        O  0.28411602  0.74413541  0.35231986    -1.12500
C108        C  0.25421852  0.76446711  0.48007364     1.05700
O109        O  0.22651436  0.82166750  0.36732423    -0.79100
O110        O  0.27339690  0.81787676  0.41345018    -0.66700
Ni111      Ni  0.29332774  0.70772644  0.32770919     1.34900
C112        C  0.29912953  0.80658848  0.41238076     0.84400
O113        O  0.25333478  0.76197207  0.28559500    -0.79600
O114        O  0.28469674  0.72395486  0.27774484    -0.89900
C115        C  0.20969968  0.81245898  0.34111667     0.84000
O116        O  0.25528065  0.69124678  0.33097861    -0.68100
O117        O  0.24109940  0.78679808  0.46552183    -0.87400
C118        C  0.22935272  0.70172590  0.33471822     0.84800
C119        C  0.26857635  0.74480155  0.26440685     1.06400
H120        H  0.22689006  0.75327532  0.40077789     0.38200
O121        O  0.24302334  0.76554047  0.39357594    -1.10000
O122        O  0.30381636  0.77895477  0.41072894    -0.66700
Ni123      Ni  0.27862318  0.74490515  0.40679776     1.26300
O124        O  0.22384548  0.72907092  0.33825050    -0.66900
O125        O  0.27017603  0.74641182  0.46071118    -0.79200
C126        C  0.31691985  0.69547330  0.40460732     0.84200
O127        O  0.31354773  0.72133604  0.41771672    -0.66400
Ni128      Ni  0.23469847  0.80278200  0.41551485     1.27400
Ni129      Ni  0.24754704  0.76387726  0.33969561     1.26100
H130        H  0.29977881  0.75717756  0.34583958     0.38800
O131        O  0.28745175  0.69196838  0.87180275    -0.81200
O132        O  0.19131205  0.78807767  0.83334424    -0.65900
O133        O  0.26497689  0.74659637  0.84810565    -1.12500
C134        C  0.24812854  0.76905658  0.97984765     1.05700
O135        O  0.20699083  0.82307628  0.87150038    -0.79100
O136        O  0.25675848  0.82166771  0.91167673    -0.66700
Ni137      Ni  0.27357387  0.70960664  0.82534575     1.34900
C138        C  0.28213841  0.81103812  0.90441045     0.84400
O139        O  0.23017777  0.76214109  0.78439046    -0.79600
O140        O  0.26107043  0.72350882  0.77646378    -0.89900
C141        C  0.18962700  0.81436041  0.84557378     0.84000
O142        O  0.23636144  0.69289356  0.83388986    -0.68100
O143        O  0.23053615  0.78918181  0.96772265    -0.87400
C144        C  0.21044129  0.70315342  0.83840878     0.84800
C145        C  0.24404604  0.74355485  0.76327911     1.06400
H146        H  0.21213112  0.75468371  0.90350417     0.38200
O147        O  0.22695178  0.76772122  0.89423434    -1.10000
O148        O  0.28711434  0.78378882  0.90001836    -0.66700
Ni149      Ni  0.26426559  0.74892232  0.90270002     1.26300
O150        O  0.20449890  0.73051372  0.84105428    -0.66900
O151        O  0.26240750  0.75185318  0.95750471    -0.79200
C152        C  0.30508055  0.70277050  0.89577799     0.84200
O153        O  0.30109668  0.72848922  0.90849750    -0.66400
Ni154      Ni  0.21919547  0.80448752  0.91830760     1.27400
Ni155      Ni  0.22770315  0.76564390  0.83934704     1.26100
H156        H  0.27981130  0.75956192  0.83864005     0.38800
O157        O  0.57336881  0.03155774  0.97569105    -0.81200
O158        O  0.47418242  0.94428870  0.93076767    -0.65900
O159        O  0.51724824  0.01313416  0.95363763    -1.12500
C160        C  0.49836532  0.98191589  0.08143248     1.05700
O161        O  0.43975958  0.96189265  0.96909037    -0.79100
O162        O  0.44456727  0.00361397  0.02197352    -0.66700
Ni163      Ni  0.55352849  0.02136495  0.92905892     1.34900
C164        C  0.45518855  0.02888199  0.01857805     0.84400
O165        O  0.49820674  0.98475701  0.88669889    -0.79600
O166        O  0.53740416  0.01338614  0.87947561    -0.89900
C167        C  0.44773168  0.94480618  0.94231649     0.84000
O168        O  0.57004668  0.98267109  0.93212019    -0.68100
O169        O  0.47766272  0.96716085  0.06666058    -0.87400
C170        C  0.55925763  0.95721394  0.93297813     0.84800
C171        C  0.51625195  0.99865969  0.86619187     1.06400
H172        H  0.50953582  0.95598525  0.00039698     0.38200
O173        O  0.49668688  0.97243128  0.99425278    -1.10000
O174        O  0.48233972  0.03273127  0.01176290    -0.66700
Ni175      Ni  0.51671498  0.00687883  0.00794843     1.26300
O176        O  0.53174522  0.95287494  0.93611035    -0.66900
O177        O  0.51514288  0.99856437  0.06212361    -0.79200
C178        C  0.56362176  0.04597548  0.00423199     0.84200
O179        O  0.53875150  0.04089420  0.01892531    -0.66400
Ni180      Ni  0.45994150  0.96474888  0.01720015     1.27400
Ni181      Ni  0.49710350  0.97815661  0.94047427     1.26100
H182        H  0.50412605  0.02937628  0.94764283     0.38800
O183        O  0.57692014  0.95563452  0.47583854    -0.81200
O184        O  0.48055598  0.04438749  0.51190116    -0.65900
O185        O  0.52034047  0.97115748  0.49725899    -1.12500
C186        C  0.50400166  0.99113462  0.36581176     1.05700
O187        O  0.44581193  0.03124510  0.47134620    -0.79100
O188        O  0.44881700  0.98253162  0.42871846    -0.66700
Ni189      Ni  0.55588380  0.96175126  0.52265898     1.34900
C190        C  0.45788431  0.95645705  0.43443268     0.84400
O191        O  0.50298932  0.00381347  0.56107146    -0.79600
O192        O  0.53653344  0.96730881  0.57059001    -0.89900
C193        C  0.45475051  0.04737098  0.49835919     0.84000
O194        O  0.57247704  0.99967188  0.52672448    -0.68100
O195        O  0.48394148  0.00900835  0.37736539    -0.87400
C196        C  0.56333559  0.02550064  0.51950256     0.84800
C197        C  0.51731442  0.98588217  0.58272065     1.06400
H198        H  0.51590643  0.02472992  0.44382038     0.38200
O199        O  0.50207198  0.01009955  0.45143751    -1.10000
O200        O  0.48495304  0.94996592  0.44103395    -0.66700
Ni201      Ni  0.52085230  0.97287803  0.44290320     1.26300
O202        O  0.53721465  0.03103171  0.50803596    -0.66900
O203        O  0.52067392  0.97612672  0.38805734    -0.79200
C204        C  0.56952655  0.93692561  0.45101007     0.84200
O205        O  0.54330921  0.93693965  0.43820609    -0.66400
Ni206      Ni  0.46656088  0.01966341  0.42551568     1.27400
Ni207      Ni  0.50186503  0.00805745  0.50611064     1.26100
H208        H  0.50656042  0.95646832  0.50488329     0.38800
O209        O  0.80735351  0.80210458  0.35926087    -0.81200
O210        O  0.71009514  0.71098784  0.39121298    -0.65900
O211        O  0.78406316  0.74675674  0.37410264    -1.12500
C212        C  0.76299218  0.73141186  0.24388003     1.05700
O213        O  0.71805038  0.67609782  0.34817325    -0.79100
O214        O  0.77305748  0.67700802  0.31766563    -0.66700
Ni215      Ni  0.79465038  0.78060089  0.40283864     1.34900
C216        C  0.79878748  0.68725931  0.31549682     0.84400
O217        O  0.75126586  0.72819805  0.43821300    -0.79600
O218        O  0.78393194  0.76287436  0.45014741    -0.89900
C219        C  0.70429133  0.68628149  0.37704203     0.84000
O220        O  0.75766419  0.80092990  0.40006105    -0.68100
O221        O  0.75122235  0.70850061  0.25706065    -0.87400
C222        C  0.73151768  0.79266629  0.39448523     0.84800
C223        C  0.76638493  0.74329704  0.46116700     1.06400
H224        H  0.72691088  0.74411217  0.32265260     0.38200
O225        O  0.74283157  0.73079840  0.32954640    -1.10000
O226        O  0.80336830  0.71456212  0.31308866    -0.66700
Ni227      Ni  0.77925651  0.74968833  0.31963501     1.26300
O228        O  0.72516664  0.76616485  0.38762064    -0.66900
O229        O  0.77288634  0.75153210  0.26533302    -0.79200
C230        C  0.82112409  0.79369072  0.32965268     0.84200
O231        O  0.81500478  0.77023598  0.31231663    -0.66400
Ni232      Ni  0.73595999  0.69445528  0.30453296     1.27400
Ni233      Ni  0.74681647  0.72951108  0.38386245     1.26100
H234        H  0.79902414  0.73202633  0.37956292     0.38800
O235        O  0.78165830  0.80520215  0.84812130    -0.81200
O236        O  0.69213089  0.71104527  0.89363245    -0.65900
O237        O  0.76385293  0.75079092  0.87317548    -1.12500
C238        C  0.73849849  0.73026925  0.74376463     1.05700
O239        O  0.70914495  0.67648382  0.85524545    -0.79100
O240        O  0.75375433  0.67768191  0.80566948    -0.66700
Ni241      Ni  0.77317959  0.78689908  0.89589012     1.34900
C242        C  0.77944945  0.68709587  0.81137042     0.84400
O243        O  0.73370527  0.73465910  0.93971878    -0.79600
O244        O  0.76571968  0.77139027  0.94542845    -0.89900
C245        C  0.69106198  0.68505854  0.88073087     0.84000
O246        O  0.73500316  0.80415105  0.89419873    -0.68100
O247        O  0.72089996  0.71142215  0.75711598    -0.87400
C248        C  0.70886818  0.79518611  0.89163280     0.84800
C249        C  0.74986688  0.75149443  0.95971077     1.06400
H250        H  0.70821558  0.74496321  0.82301592     0.38200
O251        O  0.72375225  0.73141671  0.83053572    -1.10000
O252        O  0.78427301  0.71382019  0.81865313    -0.66700
Ni253      Ni  0.76014184  0.74917664  0.81883529     1.26300
O254        O  0.70299800  0.76821593  0.88705302    -0.66900
O255        O  0.75484761  0.74613084  0.76467626    -0.79200
C256        C  0.79949593  0.79497771  0.82345321     0.84200
O257        O  0.79603013  0.76955228  0.80979766    -0.66400
Ni258      Ni  0.71521179  0.69515606  0.80704491     1.27400
Ni259      Ni  0.72754253  0.73263521  0.88510972     1.26100
H260        H  0.77937420  0.73729064  0.88087990     0.38800
O261        O  0.71588089  0.17981206  0.14137714    -0.81200
O262        O  0.81347318  0.26929388  0.18084910    -0.65900
O263        O  0.73923904  0.23404300  0.16310117    -1.12500
C264        C  0.76278337  0.24989455  0.03221580     1.05700
O265        O  0.80472663  0.30421111  0.13824891    -0.79100
O266        O  0.75447196  0.30594508  0.09690657    -0.66700
Ni267      Ni  0.73040661  0.19766277  0.18688294     1.34900
C268        C  0.72802179  0.29812913  0.10146590     0.84400
O269        O  0.77126640  0.25084826  0.22781071    -0.79600
O270        O  0.74291235  0.21174847  0.23530008    -0.89900
C271        C  0.81987453  0.29335857  0.16539373     0.84000
O272        O  0.76737639  0.17840009  0.17817755    -0.68100
O273        O  0.78025385  0.26922601  0.04438122    -0.87400
C274        C  0.79341418  0.18772683  0.17624345     0.84800
C275        C  0.75766904  0.23271513  0.24872455     1.06400
H276        H  0.79477321  0.23559371  0.11178371     0.38200
O277        O  0.78022567  0.25034476  0.11879214    -1.10000
O278        O  0.72113278  0.27150876  0.10683577    -0.66700
Ni279      Ni  0.74254424  0.23428472  0.10871465     1.26300
O280        O  0.79915029  0.21480603  0.17604866    -0.66900
O281        O  0.74706014  0.23450536  0.05424347    -0.79200
C282        C  0.70050659  0.19083473  0.11461903     0.84200
O283        O  0.70549356  0.21606766  0.10135932    -0.66400
Ni284      Ni  0.79128747  0.28511693  0.09283193     1.27400
Ni285      Ni  0.77655515  0.25095786  0.17334439     1.26100
H286        H  0.72409831  0.24797539  0.17081219     0.38800
O287        O  0.70649069  0.17834267  0.63922667    -0.81200
O288        O  0.79564992  0.27403256  0.68152744    -0.65900
O289        O  0.72350730  0.23477339  0.66116018    -1.12500
C290        C  0.75128239  0.25255129  0.53235973     1.05700
O291        O  0.78030485  0.30852923  0.64256046    -0.79100
O292        O  0.73479492  0.30653195  0.59542661    -0.66700
Ni293      Ni  0.71466117  0.19901970  0.68602487     1.34900
C294        C  0.70900860  0.29677911  0.59825329     0.84400
O295        O  0.75426623  0.25198876  0.72728429    -0.79600
O296        O  0.72198433  0.21596031  0.73537133    -0.89900
C297        C  0.79917562  0.29882847  0.66613637     0.84000
O298        O  0.75307280  0.18175041  0.68557786    -0.68100
O299        O  0.76669489  0.27296199  0.54617914    -0.87400
C300        C  0.77881490  0.19139636  0.68124402     0.84800
C301        C  0.73891319  0.23552519  0.74848916     1.06400
H302        H  0.78002434  0.24030165  0.61206685     0.38200
O303        O  0.76414010  0.25368333  0.61886183    -1.10000
O304        O  0.70368530  0.26971678  0.60271061    -0.66700
Ni305      Ni  0.72845601  0.23464252  0.60669592     1.26300
O306        O  0.78386770  0.21824621  0.67533689    -0.66900
O307        O  0.73543287  0.23569087  0.55253986    -0.79200
C308        C  0.69229799  0.18635741  0.60957029     0.84200
O309        O  0.69368494  0.21242846  0.59715617    -0.66400
Ni310      Ni  0.77314931  0.28956159  0.59513631     1.27400
Ni311      Ni  0.75975944  0.25341641  0.67307431     1.26100
H312        H  0.70774239  0.24838850  0.66761547     0.38800
O313        O  0.44125280  0.54334443  0.02502904    -0.81200
O314        O  0.54170651  0.44544688  0.05597708    -0.65900
O315        O  0.49610955  0.51626800  0.04093055    -1.12500
C316        C  0.50679417  0.48824057  0.90982432     1.10500
O317        O  0.57271094  0.46026909  0.01188900    -0.79100
O318        O  0.56323494  0.50286236  0.95908796    -0.66700
Ni319      Ni  0.45931310  0.52124304  0.06605455     1.34900
C320        C  0.55504936  0.52882966  0.96744549     0.84400
O321        O  0.51959854  0.48646807  0.10404154    -0.79600
O322        O  0.47300537  0.50187721  0.11159799    -0.89900
C323        C  0.56705350  0.44415648  0.04045827     0.84000
O324        O  0.44452834  0.48565571  0.04617194    -0.68100
O325        O  0.52503276  0.46849238  0.92134381    -0.87400
C326        C  0.45533060  0.46001297  0.05104385     0.84800
C327        C  0.49750095  0.49256391  0.12508579     1.06400
H328        H  0.49971883  0.46089694  0.99105456     0.38200
O329        O  0.51397265  0.47576026  0.99623662    -1.10000
O330        O  0.53037256  0.53475202  0.98292765    -0.66700
Ni331      Ni  0.49501157  0.51240735  0.98640570     1.26300
O332        O  0.48287786  0.45548381  0.05704491    -0.66900
O333        O  0.49487719  0.50742079  0.93176938    -0.79200
C334        C  0.45058225  0.55610065  0.99527708     0.84200
O335        O  0.47440720  0.54860710  0.97885586    -0.66400
Ni336      Ni  0.54772750  0.46490267  0.96750553     1.27400
Ni337      Ni  0.51737019  0.48021459  0.05008634     1.26100
H338        H  0.50838321  0.53237140  0.04811351     0.38800
O339        O  0.44066736  0.45681410  0.52023695    -0.81200
O340        O  0.53737814  0.54321740  0.47776666    -0.65900
O341        O  0.49638804  0.47272398  0.49558637    -1.12500
C342        C  0.51163309  0.49583931  0.62662005     1.05700
O343        O  0.57109491  0.53313874  0.52205623    -0.79100
O344        O  0.56825051  0.48433331  0.56645699    -0.66700
Ni345      Ni  0.45948468  0.46569438  0.47263172     1.34900
C346        C  0.55983195  0.45846422  0.55961527     0.84400
O347        O  0.51506584  0.50251337  0.43059913    -0.79600
O348        O  0.47561483  0.47384640  0.42349602    -0.89900
C349        C  0.56225844  0.54765641  0.49305484     0.84000
O350        O  0.44246820  0.50411760  0.47519424    -0.68100
O351        O  0.53070097  0.51387792  0.61505479    -0.87400
C352        C  0.45307434  0.52949808  0.47741526     0.84800
C353        C  0.49681848  0.48850493  0.40995552     1.06400
H354        H  0.50023656  0.52707090  0.54652975     0.38200
O355        O  0.51473850  0.51216632  0.53995411    -1.10000
O356        O  0.53338384  0.45261924  0.55086776    -0.66700
Ni357      Ni  0.49701902  0.47528486  0.54977479     1.26300
O358        O  0.48056703  0.53356175  0.48161215    -0.66900
O359        O  0.49779014  0.47885215  0.60442648    -0.79200
C360        C  0.45024178  0.43868223  0.54495160     0.84200
O361        O  0.47679272  0.43922992  0.55603461    -0.66400
Ni362      Ni  0.54939580  0.52223156  0.56712470     1.27400
Ni363      Ni  0.51558273  0.50838265  0.48530591     1.26100
H364        H  0.50946176  0.45693053  0.48764200     0.38800
O365        O  0.08094854  0.54237510  0.25683946    -0.81200
O366        O  0.98518626  0.45012136  0.22264351    -0.65900
O367        O  0.02478589  0.52244365  0.23732941    -1.12500
C368        C  0.01091386  0.49853986  0.36867632     1.05700
O369        O  0.95153653  0.46562072  0.26317712    -0.79100
O370        O  0.95510901  0.51154678  0.30996210    -0.66700
Ni371      Ni  0.06041830  0.53036121  0.21145923     1.34900
C372        C  0.96317627  0.53737533  0.30286517     0.84400
O373        O  0.00506043  0.49027286  0.17384306    -0.79600
O374        O  0.04327644  0.51956822  0.16343151    -0.89900
C375        C  0.96021625  0.44729609  0.23824421     0.84000
O376        O  0.07840687  0.49281073  0.21689348    -0.68100
O377        O  0.99195338  0.48066528  0.35640965    -0.87400
C378        C  0.06883433  0.46713031  0.22047287     0.84800
C379        C  0.02191687  0.50428176  0.15158999     1.06400
H380        H  0.02222283  0.46817329  0.28943784     0.38200
O381        O  0.00785496  0.48315243  0.28266481    -1.10000
O382        O  0.98955867  0.54331149  0.29408058    -0.66700
Ni383      Ni  0.02563194  0.51994972  0.29193899     1.26300
O384        O  0.04162470  0.46187201  0.22455849    -0.66900
O385        O  0.02528874  0.51571355  0.34699437    -0.79200
C386        C  0.07187520  0.55847942  0.28416713     0.84200
O387        O  0.04617006  0.55597276  0.29786752    -0.66400
Ni388      Ni  0.97301336  0.47362995  0.30894208     1.27400
Ni389      Ni  0.00609350  0.48590279  0.22831566     1.26100
H390        H  0.01097044  0.53778460  0.22994217     0.38800
O391        O  0.06403883  0.54071832  0.76206039    -0.81200
O392        O  0.97196185  0.45195657  0.71965493    -0.65900
O393        O  0.00772278  0.52506859  0.73928106    -1.12500
C394        C  0.98990865  0.50304023  0.86885550     1.05700
O395        O  0.93648918  0.46000942  0.76221812    -0.79100
O396        O  0.93550956  0.51248140  0.79648055    -0.66700
Ni397      Ni  0.04334223  0.53507522  0.71487404     1.34900
C398        C  0.94471885  0.53849254  0.79568369     0.84400
O399        O  0.99253324  0.49400293  0.67334394    -0.79600
O400        O  0.02498940  0.53023949  0.66627432    -0.89900
C401        C  0.94787244  0.44512160  0.73521858     0.84000
O402        O  0.06168592  0.49723505  0.71066894    -0.68100
O403        O  0.96802900  0.48921608  0.85588871    -0.87400
C404        C  0.05331494  0.47139708  0.71702381     0.84800
C405        C  0.00677191  0.51205837  0.65274021     1.06400
H406        H  0.00412263  0.46919832  0.79010212     0.38200
O407        O  0.99029864  0.48449289  0.78272612    -1.10000
O408        O  0.97201453  0.54450827  0.79686470    -0.66700
Ni409      Ni  0.00827390  0.52114675  0.79341320     1.26300
O410        O  0.02707404  0.46578501  0.72660048    -0.66900
O411        O  0.00846720  0.51562686  0.84753418    -0.79200
C412        C  0.05528070  0.55804789  0.78818200     0.84200
O413        O  0.02914136  0.55680969  0.80078458    -0.66400
Ni414      Ni  0.95414594  0.47584225  0.80728342     1.27400
Ni415      Ni  0.99076650  0.48841504  0.72807383     1.26100
H416        H  0.99340108  0.54011375  0.73242656     0.38800
C417        C  0.99049701  0.45545601  0.49389774    -0.18100
C418        C  0.98742529  0.45812424  0.53342258    -0.20300
C419        C  0.99596181  0.48372172  0.55208727     0.20400
C420        C  0.00762220  0.50690632  0.53058224    -0.03200
C421        C  0.01080071  0.50418518  0.49067049    -0.06300
C422        C  0.00212660  0.47834969  0.47237077     0.20600
C423        C  0.02242801  0.52735976  0.46909056     0.18800
C424        C  0.03092606  0.55297080  0.48778868    -0.17800
C425        C  0.02790315  0.55562080  0.52737462    -0.20000
C426        C  0.01633830  0.53270565  0.54896460     0.20300
C427        C  0.01413013  0.53483820  0.58872729    -0.33000
C428        C  0.00365774  0.51139161  0.61062970     0.01000
C429        C  0.99385108  0.48618976  0.59194458    -0.24300
C430        C  0.00440783  0.47611455  0.43271695    -0.28900
C431        C  0.01468479  0.49954714  0.41065586     0.06700
C432        C  0.02447589  0.52483911  0.42915898    -0.27600
H433        H  0.98364259  0.43550399  0.48012055     0.11400
H434        H  0.97849047  0.44010209  0.54941577     0.12500
H435        H  0.03981450  0.57100819  0.47178285     0.11600
H436        H  0.03474598  0.57557588  0.54114828     0.10800
H437        H  0.02155531  0.55448242  0.60276487     0.16200
H438        H  0.98593097  0.46795598  0.60849315     0.12100
H439        H  0.99705026  0.45637170  0.41884084     0.15000
H440        H  0.03224644  0.54305097  0.41245123     0.14800
C441        C  0.04176241  0.54310378  0.02333698    -0.18100
C442        C  0.03700981  0.54345904  0.98398147    -0.20300
C443        C  0.01755443  0.52384081  0.96721732     0.20400
C444        C  0.00252008  0.50381011  0.99042357    -0.03200
C445        C  0.00727967  0.50348894  0.03021814    -0.06300
C446        C  0.02705008  0.52320858  0.04660219     0.20600
C447        C  0.99232825  0.48347747  0.05354606     0.18800
C448        C  0.97284956  0.46384039  0.03669704    -0.17800
C449        C  0.96815669  0.46412528  0.99720902    -0.20000
C450        C  0.98287455  0.48403186  0.97387624     0.20300
C451        C  0.97853505  0.48431447  0.93426802    -0.33000
C452        C  0.99381495  0.50391193  0.91081666     0.01000
C453        C  0.01314285  0.52373751  0.92762935    -0.24300
C454        C  0.03173071  0.52289881  0.08600871    -0.28900
C455        C  0.01672970  0.50338370  0.10976169     0.06700
C456        C  0.99707374  0.48358657  0.09323324    -0.27600
H457        H  0.05697711  0.55842348  0.03560371     0.11400
H458        H  0.04867294  0.55900180  0.96662276     0.12500
H459        H  0.96122416  0.44826981  0.05405711     0.11600
H460        H  0.95304004  0.44872670  0.98490006     0.10800
H461        H  0.96362481  0.46884633  0.92165275     0.16200
H462        H  0.02484040  0.53904024  0.90991086     0.12100
H463        H  0.04691930  0.53828027  0.09822053     0.15000
H464        H  0.98554495  0.46829185  0.11114758     0.14800
C465        C  0.50267251  0.54594093  0.75086092    -0.18100
C466        C  0.50085180  0.54500355  0.79067675    -0.20300
C467        C  0.49910725  0.51811115  0.80971770     0.20400
C468        C  0.49811524  0.49196632  0.78830997    -0.03200
C469        C  0.49936505  0.49296333  0.74805277    -0.06300
C470        C  0.50236923  0.52004213  0.72936536     0.20600
C471        C  0.49860449  0.46681602  0.72661071     0.18800
C472        C  0.49618915  0.43997711  0.74566303    -0.17800
C473        C  0.49559708  0.43894142  0.78557109    -0.20000
C474        C  0.49700408  0.46474946  0.80713378     0.20300
C475        C  0.49850748  0.46374876  0.84710737    -0.33000
C476        C  0.50042866  0.48962881  0.86853112     0.01000
C477        C  0.49966025  0.51679555  0.84974246    -0.24300
C478        C  0.50581743  0.52070701  0.68962574    -0.28900
C479        C  0.50560451  0.49476480  0.66808678     0.06700
C480        C  0.50120796  0.46793418  0.68664570    -0.27600
H481        H  0.50475372  0.56692175  0.73689380     0.11400
H482        H  0.50159652  0.56527726  0.80662978     0.12500
H483        H  0.49549577  0.41969883  0.72972077     0.11600
H484        H  0.49452535  0.41788649  0.79959573     0.10800
H485        H  0.49895372  0.44280077  0.86158369     0.16200
H486        H  0.50141486  0.53678496  0.86618184     0.12100
H487        H  0.50891527  0.54144846  0.67537493     0.15000
H488        H  0.50117382  0.44786022  0.67016686     0.14800
C489        C  0.44586746  0.48621174  0.28705773    -0.18100
C490        C  0.44594702  0.48576899  0.24731976    -0.20300
C491        C  0.47258075  0.48654063  0.22726768     0.20400
C492        C  0.49946782  0.48742852  0.24726571    -0.03200
C493        C  0.49937761  0.48810826  0.28751382    -0.06300
C494        C  0.47241192  0.48752906  0.30729383     0.20600
C495        C  0.52613196  0.48955878  0.30791508     0.18800
C496        C  0.55276550  0.48973117  0.28759262    -0.17800
C497        C  0.55286091  0.48889561  0.24756898    -0.20000
C498        C  0.52632150  0.48801294  0.22707486     0.20300
C499        C  0.52600953  0.48840711  0.18686721    -0.33000
C500        C  0.49909200  0.48864699  0.16695231     0.01000
C501        C  0.47261283  0.48706812  0.18751218    -0.24300
C502        C  0.47231073  0.48817865  0.34704122    -0.28900
C503        C  0.49869592  0.48955414  0.36784133     0.06700
C504        C  0.52564351  0.49061030  0.34815666    -0.27600
H505        H  0.42501513  0.48568601  0.30198067     0.11400
H506        H  0.42514939  0.48503605  0.23225431     0.12500
H507        H  0.57354380  0.49061618  0.30265171     0.11600
H508        H  0.57370455  0.48925728  0.23262973     0.10800
H509        H  0.54650646  0.48960348  0.17122896     0.16200
H510        H  0.45174313  0.48678546  0.17251865     0.12100
H511        H  0.45142809  0.48768021  0.36196270     0.15000
H512        H  0.54606072  0.49149165  0.36405545     0.14800
C513        C  0.89635897  0.35475435  0.76452393    -0.18100
C514        C  0.87532689  0.33405853  0.75507126    -0.20300
C515        C  0.86184326  0.33455549  0.71907620     0.20400
C516        C  0.87046539  0.35551135  0.69184910    -0.03200
C517        C  0.89201952  0.37609929  0.70116508    -0.06300
C518        C  0.90448409  0.37608971  0.73799093     0.20600
C519        C  0.90025519  0.39737669  0.67414128     0.18800
C520        C  0.88727937  0.39744608  0.63784083    -0.17800
C521        C  0.86569415  0.37724307  0.62875361    -0.20000
C522        C  0.85686505  0.35653801  0.65575011     0.20300
C523        C  0.83406454  0.33741734  0.64765496    -0.33000
C524        C  0.82473117  0.31705345  0.67497502     0.01000
C525        C  0.83925778  0.31513475  0.71025147    -0.24300
C526        C  0.92396081  0.39811839  0.74809412    -0.28900
C527        C  0.93154332  0.41978167  0.72170022     0.06700
C528        C  0.92037955  0.41890017  0.68445365    -0.27600
H529        H  0.90590408  0.35439091  0.79284730     0.11400
H530        H  0.86908669  0.31810707  0.77625012     0.12500
H531        H  0.89333188  0.41355660  0.61677025     0.11600
H532        H  0.85552536  0.37814389  0.60080761     0.10800
H533        H  0.82326959  0.33862933  0.62009022     0.16200
H534        H  0.83219352  0.29941134  0.73129250     0.12100
H535        H  0.93262069  0.39899759  0.77689810     0.15000
H536        H  0.92600865  0.43590293  0.66436080     0.14800
C537        C  0.65456209  0.42100089  0.61035857    -0.18100
C538        C  0.67471335  0.39813495  0.61717248    -0.20300
C539        C  0.66916400  0.36985470  0.60388220     0.20400
C540        C  0.64295761  0.36438110  0.58383046    -0.03200
C541        C  0.62260187  0.38757358  0.57680267    -0.06300
C542        C  0.62855096  0.41598101  0.59007163     0.20600
C543        C  0.59637565  0.38236714  0.55658844     0.18800
C544        C  0.59086369  0.35393891  0.54349495    -0.17800
C545        C  0.61109377  0.33092407  0.55040579    -0.20000
C546        C  0.63725061  0.33586417  0.57055767     0.20300
C547        C  0.65810032  0.31307534  0.57700745    -0.33000
C548        C  0.68468959  0.31878778  0.59596225     0.01000
C549        C  0.68972521  0.34713828  0.60971762    -0.24300
C550        C  0.60832485  0.43890887  0.58322095    -0.28900
C551        C  0.58182800  0.43403422  0.56364117     0.06700
C552        C  0.57608335  0.40561230  0.55021232    -0.27600
H553        H  0.65936990  0.44266409  0.62089060     0.11400
H554        H  0.69474851  0.40261240  0.63268410     0.12500
H555        H  0.57087068  0.34948556  0.52789469     0.11600
H556        H  0.60631381  0.30926292  0.53985575     0.10800
H557        H  0.65424702  0.29134684  0.56594939     0.16200
H558        H  0.71011026  0.35167157  0.62447494     0.12100
H559        H  0.61299143  0.46053156  0.59405112     0.15000
H560        H  0.55577642  0.40153421  0.53508762     0.14800
C561        C  0.78812957  0.27637041  0.86211701    -0.18100
C562        C  0.79208528  0.27758863  0.90163765    -0.20300
C563        C  0.77489381  0.26058825  0.92596387     0.20400
C564        C  0.75376972  0.24188623  0.91035509    -0.03200
C565        C  0.74980795  0.24062150  0.87041910    -0.06300
C566        C  0.76694511  0.25809532  0.84623420     0.20600
C567        C  0.72861633  0.22200690  0.85475204     0.18800
C568        C  0.71172600  0.20469830  0.87909462    -0.17800
C569        C  0.71553081  0.20608010  0.91867677    -0.20000
C570        C  0.73638567  0.22470480  0.93462691     0.20300
C571        C  0.73983717  0.22678791  0.97437914    -0.33000
C572        C  0.76044957  0.24589406  0.99023668     0.01000
C573        C  0.77816461  0.26236865  0.96563211    -0.24300
C574        C  0.76271339  0.25693086  0.80660804    -0.28900
C575        C  0.74167348  0.23835692  0.79060870     0.06700
C576        C  0.72472012  0.22096292  0.81504988    -0.27600
H577        H  0.80157257  0.28982724  0.84397007     0.11400
H578        H  0.80845266  0.29202504  0.91320504     0.12500
H579        H  0.69542191  0.19019776  0.86752213     0.11600
H580        H  0.70203169  0.19268825  0.93683523     0.10800
H581        H  0.72608529  0.21394259  0.99291427     0.16200
H582        H  0.79424242  0.27708343  0.97731013     0.12100
H583        H  0.77617820  0.27019412  0.78822039     0.15000
H584        H  0.70860291  0.20636735  0.80321313     0.14800
C585        C  0.78346519  0.28586527  0.36700798    -0.18100
C586        C  0.78196172  0.28867535  0.40664770    -0.20300
C587        C  0.76765739  0.26763914  0.42861948     0.20400
C588        C  0.75466381  0.24358114  0.41071279    -0.03200
C589        C  0.75610507  0.24080407  0.37074564    -0.06300
C590        C  0.77057828  0.26204172  0.34873967     0.20600
C591        C  0.74296635  0.21683342  0.35283777     0.18800
C592        C  0.72862465  0.19581613  0.37481850    -0.17800
C593        C  0.72726786  0.19853366  0.41446315    -0.20000
C594        C  0.74019849  0.22232806  0.43269846     0.20300
C595        C  0.73897381  0.22521957  0.47248678    -0.33000
C596        C  0.75208647  0.24908230  0.49049452     0.01000
C597        C  0.76622235  0.27025273  0.46822752    -0.24300
C598        C  0.77163955  0.25922639  0.30887797    -0.28900
C599        C  0.75821219  0.23553594  0.29080937     0.06700
C600        C  0.74415489  0.21435148  0.31319216    -0.27600
H601        H  0.79462320  0.30237094  0.35063548     0.11400
H602        H  0.79203059  0.30729675  0.42014188     0.12500
H603        H  0.71840681  0.17728057  0.36132198     0.11600
H604        H  0.71608779  0.18204599  0.43084643     0.10800
H605        H  0.72799209  0.20886526  0.48935523     0.16200
H606        H  0.77620133  0.28895828  0.48166159     0.12100
H607        H  0.78251675  0.27563149  0.29198395     0.15000
H608        H  0.73378901  0.19585172  0.29978866     0.14800
C609        C  0.85490346  0.36504805  0.25739658    -0.18100
C610        C  0.87355722  0.38800537  0.26610584    -0.20300
C611        C  0.89774217  0.39388780  0.24267225     0.20400
C612        C  0.90349649  0.37627558  0.21041269    -0.03200
C613        C  0.88446942  0.35328548  0.20136871    -0.06300
C614        C  0.85995682  0.34779576  0.22490475     0.20600
C615        C  0.88939801  0.33644782  0.16815112     0.18800
C616        C  0.91396115  0.34195903  0.14518284    -0.17800
C617        C  0.93312359  0.36444845  0.15453932    -0.20000
C618        C  0.92790338  0.38197716  0.18682455     0.20300
C619        C  0.94648272  0.40520795  0.19581220    -0.33000
C620        C  0.94066956  0.42302147  0.22778011     0.01000
C621        C  0.91617900  0.41717517  0.25093699    -0.24300
C622        C  0.84015362  0.32609337  0.21457494    -0.28900
C623        C  0.84404805  0.31061181  0.18044343     0.06700
C624        C  0.86893175  0.31533183  0.15769870    -0.27600
H625        H  0.83617367  0.36115731  0.27566622     0.11400
H626        H  0.86893687  0.40131504  0.29105938     0.12500
H627        H  0.91812809  0.32913576  0.11967918     0.11600
H628        H  0.95177992  0.36842497  0.13618316     0.10800
H629        H  0.96527061  0.40954957  0.17781745     0.16200
H630        H  0.91158442  0.43058580  0.27583093     0.12100
H631        H  0.82068328  0.32256609  0.23169322     0.15000
H632        H  0.87166716  0.30336383  0.13117433     0.14800
C633        C  0.62228166  0.32893571  0.10542249    -0.18100
C634        C  0.59982514  0.34950679  0.09730232    -0.20300
C635        C  0.60649095  0.37710270  0.08247143     0.20400
C636        C  0.63622639  0.38420569  0.07657374    -0.03200
C637        C  0.65894591  0.36355516  0.08529433    -0.06300
C638        C  0.65191798  0.33560272  0.09921234     0.20600
C639        C  0.68861438  0.37064174  0.07916286     0.18800
C640        C  0.69536516  0.39838881  0.06487835    -0.17800
C641        C  0.67290257  0.41863218  0.05572654    -0.20000
C642        C  0.64325125  0.41164933  0.06106955     0.20300
C643        C  0.62052218  0.43132853  0.05033452    -0.33000
C644        C  0.59073608  0.42428169  0.05550500     0.01000
C645        C  0.58395997  0.39735823  0.07246951    -0.24300
C646        C  0.67452718  0.31458628  0.10570572    -0.28900
C647        C  0.70421727  0.32116603  0.09870579     0.06700
C648        C  0.71096971  0.34961789  0.08629676    -0.27600
H649        H  0.61641837  0.30764298  0.11619209     0.11400
H650        H  0.57715870  0.34361829  0.10201687     0.12500
H651        H  0.71803418  0.40424460  0.06006547     0.11600
H652        H  0.67872881  0.43965797  0.04404679     0.10800
H653        H  0.62601549  0.45207552  0.03750913     0.16200
H654        H  0.56113338  0.39164461  0.07631122     0.12100
H655        H  0.66891399  0.29291471  0.11541193     0.15000
H656        H  0.73362874  0.35517150  0.08074985     0.14800
C657        C  0.84185120  0.56893303  0.77232794    -0.18100
C658        C  0.81860938  0.58924678  0.77562555    -0.20300
C659        C  0.82345946  0.61727101  0.79033067     0.20400
C660        C  0.85207353  0.62501893  0.80154500    -0.03200
C661        C  0.87562649  0.60443693  0.79820635    -0.06300
C662        C  0.87034347  0.57627241  0.78371447     0.20600
C663        C  0.90428801  0.61186789  0.80980733     0.18800
C664        C  0.90905466  0.64000756  0.82438569    -0.17800
C665        C  0.88570371  0.66045335  0.82759429    -0.20000
C666        C  0.85708885  0.65318428  0.81633279     0.20300
C667        C  0.83341152  0.67347108  0.81964835    -0.33000
C668        C  0.80470902  0.66582991  0.80862777     0.01000
C669        C  0.80010521  0.63758329  0.79402324    -0.24300
C670        C  0.89343092  0.55561423  0.78160318    -0.28900
C671        C  0.92195748  0.56233695  0.79405647     0.06700
C672        C  0.92739716  0.59080620  0.80742804    -0.27600
H673        H  0.83747924  0.54735367  0.76116074     0.11400
H674        H  0.79677580  0.58297210  0.76683192     0.12500
H675        H  0.93083037  0.64616323  0.83355184     0.11600
H676        H  0.89001811  0.68194569  0.83906544     0.10800
H677        H  0.83731986  0.69511560  0.83093087     0.16200
H678        H  0.77826416  0.63135734  0.78514954     0.12100
H679        H  0.88896329  0.53390573  0.77088834     0.15000
H680        H  0.94923362  0.59621072  0.81724917     0.14800
C681        C  0.64549689  0.56056033  0.90476283    -0.18100
C682        C  0.66429829  0.58233218  0.89265386    -0.20300
C683        C  0.65761670  0.61180095  0.90039955     0.20400
C684        C  0.63155992  0.61961547  0.91998051    -0.03200
C685        C  0.61245612  0.59753210  0.93217863    -0.06300
C686        C  0.61971882  0.56792896  0.92477099     0.20600
C687        C  0.58625474  0.60499032  0.95178782     0.18800
C688        C  0.57930308  0.63466766  0.95851901    -0.17800
C689        C  0.59835685  0.65663038  0.94650049    -0.20000
C690        C  0.62472064  0.64936588  0.92744154     0.20300
C691        C  0.64435016  0.67112306  0.91555716    -0.33000
C692        C  0.67044161  0.66322896  0.89602240     0.01000
C693        C  0.67669719  0.63348672  0.88873165    -0.24300
C694        C  0.60115387  0.54603091  0.93733784    -0.28900
C695        C  0.57498618  0.55293484  0.95705157     0.06700
C696        C  0.56757782  0.58261331  0.96410536    -0.27600
H697        H  0.65119766  0.53791290  0.89861679     0.11400
H698        H  0.68417922  0.57609782  0.87737298     0.12500
H699        H  0.55919057  0.64090074  0.97326926     0.11600
H700        H  0.59251329  0.67929927  0.95224991     0.10800
H701        H  0.63914295  0.69400174  0.92087621     0.16200
H702        H  0.69667518  0.62701391  0.87378143     0.12100
H703        H  0.60707788  0.52342487  0.93120790     0.15000
H704        H  0.54729514  0.58829580  0.97883955     0.14800
C705        C  0.70833554  0.70293971  0.61247291    -0.18100
C706        C  0.71278237  0.70399524  0.57293944    -0.20300
C707        C  0.73570443  0.72040213  0.55757590     0.20400
C708        C  0.75432407  0.73581073  0.58239468    -0.03200
C709        C  0.74969515  0.73494920  0.62217714    -0.06300
C710        C  0.72661824  0.71842035  0.63733346     0.20600
C711        C  0.76823872  0.75064009  0.64674930     0.18800
C712        C  0.79132573  0.76677673  0.63155724    -0.17800
C713        C  0.79595298  0.76755939  0.59224651    -0.20000
C714        C  0.77752327  0.75227874  0.56750108     0.20300
C715        C  0.78174924  0.75360630  0.52808016    -0.33000
C716        C  0.76301069  0.73892853  0.50287907     0.01000
C717        C  0.74015175  0.72204258  0.51791085    -0.24300
C718        C  0.72246104  0.71750317  0.67704670    -0.28900
C719        C  0.74103624  0.73304578  0.70174693     0.06700
C720        C  0.76367297  0.74974501  0.68615640    -0.27600
H721        H  0.69053927  0.69007081  0.62359569     0.11400
H722        H  0.69825975  0.69201804  0.55438161     0.12500
H723        H  0.80582259  0.77881528  0.65010060     0.11600
H724        H  0.81388084  0.78026979  0.58116591     0.10800
H725        H  0.79946915  0.76662475  0.51701816     0.16200
H726        H  0.72544804  0.71075737  0.49882209     0.12100
H727        H  0.70499898  0.70443313  0.68867801     0.15000
H728        H  0.77831233  0.76158989  0.70474910     0.14800
C729        C  0.74209964  0.68986656  0.11707725    -0.18100
C730        C  0.73874150  0.69292794  0.07762147    -0.20300
C731        C  0.74617590  0.71908436  0.05953094     0.20400
C732        C  0.75737879  0.74229241  0.08151801    -0.03200
C733        C  0.76059400  0.73927164  0.12141984    -0.06300
C734        C  0.75274373  0.71298734  0.13918124     0.20600
C735        C  0.77124306  0.76266044  0.14355487     0.18800
C736        C  0.77914834  0.78864902  0.12533948    -0.17800
C737        C  0.77617291  0.79157277  0.08577055    -0.20000
C738        C  0.76517754  0.76858608  0.06371148     0.20300
C739        C  0.76199456  0.77141323  0.02413707    -0.33000
C740        C  0.75104070  0.74834584  0.00182600     0.01000
C741        C  0.74283384  0.72234083  0.01986977    -0.24300
C742        C  0.75491470  0.71046180  0.17886033    -0.28900
C743        C  0.76430218  0.73402226  0.20156591     0.06700
C744        C  0.77309104  0.75989033  0.18351237    -0.27600
H745        H  0.73601604  0.66949775  0.13039273     0.11400
H746        H  0.73025556  0.67484508  0.06126741     0.12500
H747        H  0.78741935  0.80681375  0.14173046     0.11600
H748        H  0.78233364  0.81190718  0.07242628     0.10800
H749        H  0.76819412  0.79170100  0.01066668     0.16200
H750        H  0.73454036  0.70442900  0.00299695     0.12100
H751        H  0.74843116  0.69019465  0.19212277     0.15000
H752        H  0.78055288  0.77809455  0.20052603     0.14800
C753        C  0.90565875  0.66303012  0.29770213    -0.18100
C754        C  0.92872611  0.64210157  0.29579157    -0.20300
C755        C  0.92331210  0.61226873  0.30161362     0.20400
C756        C  0.89429192  0.60365656  0.30957063    -0.03200
C757        C  0.87109435  0.62469810  0.31150137    -0.06300
C758        C  0.87670814  0.65456709  0.30554697     0.20600
C759        C  0.84220564  0.61570633  0.31925156     0.18800
C760        C  0.83664360  0.58603616  0.32505645    -0.17800
C761        C  0.85950812  0.56531272  0.32323257    -0.20000
C762        C  0.88829653  0.57391245  0.31547508     0.20300
C763        C  0.91103557  0.55303284  0.31334397    -0.33000
C764        C  0.94010377  0.56098208  0.30515609     0.01000
C765        C  0.94616388  0.59083676  0.29945145    -0.24300
C766        C  0.85322211  0.67524223  0.30738310    -0.28900
C767        C  0.82424867  0.66623965  0.31501866     0.06700
C768        C  0.81918687  0.63638762  0.32094917    -0.27600
H769        H  0.91046868  0.68584546  0.29298268     0.11400
H770        H  0.95079059  0.64925560  0.28965029     0.12500
H771        H  0.81455746  0.57883084  0.33097569     0.11600
H772        H  0.85464086  0.54248688  0.32778437     0.10800
H773        H  0.90581174  0.53028683  0.31790730     0.16200
H774        H  0.96844532  0.59734174  0.29327440     0.12100
H775        H  0.85744171  0.69816997  0.30247340     0.15000
H776        H  0.79712515  0.62904762  0.32679228     0.14800
C777        C  0.62370961  0.61642110  0.36427896    -0.18100
C778        C  0.60357940  0.59729740  0.38040819    -0.20300
C779        C  0.60213221  0.59372990  0.42010268     0.20400
C780        C  0.62087615  0.60998967  0.44382928    -0.03200
C781        C  0.64074798  0.62983202  0.42756524    -0.06300
C782        C  0.64245029  0.63266873  0.38756955     0.20600
C783        C  0.65915661  0.64650511  0.45125649     0.18800
C784        C  0.65760746  0.64300990  0.49098586    -0.17800
C785        C  0.63836537  0.62289682  0.50705713    -0.20000
C786        C  0.62000636  0.60618867  0.48373495     0.20300
C787        C  0.60095310  0.58561868  0.49953209    -0.33000
C788        C  0.58211015  0.56941848  0.47605821     0.01000
C789        C  0.58253552  0.57394061  0.43641118    -0.24300
C790        C  0.66311378  0.65139205  0.37151445    -0.28900
C791        C  0.68157269  0.66802790  0.39482784     0.06700
C792        C  0.67911097  0.66592714  0.43473186    -0.27600
H793        H  0.62466360  0.61845736  0.33352203     0.11400
H794        H  0.58938478  0.58499817  0.36177407     0.12500
H795        H  0.67156893  0.65555525  0.50962641     0.11600
H796        H  0.63788325  0.62037250  0.53777168     0.10800
H797        H  0.60051065  0.58243250  0.53016381     0.16200
H798        H  0.56817800  0.56144304  0.41818482     0.12100
H799        H  0.66484196  0.65310442  0.34075472     0.15000
H800        H  0.69347563  0.67854553  0.45279257     0.14800
C801        C  0.67414263  0.91415335  0.42823838    -0.18100
C802        C  0.69692095  0.89412631  0.41999756    -0.20300
C803        C  0.69068460  0.86492887  0.41138614     0.20400
C804        C  0.66116490  0.85598298  0.41026813    -0.03200
C805        C  0.63813117  0.87627851  0.41822561    -0.06300
C806        C  0.64475839  0.90536479  0.42768710     0.20600
C807        C  0.60855333  0.86734264  0.41740725     0.18800
C808        C  0.60237318  0.83818572  0.40851374    -0.17800
C809        C  0.62522761  0.81801511  0.40090640    -0.20000
C810        C  0.65466894  0.82665369  0.40190358     0.20300
C811        C  0.67770704  0.80632390  0.39550085    -0.33000
C812        C  0.70725692  0.81484396  0.39748020     0.01000
C813        C  0.71347870  0.84439179  0.40478235    -0.24300
C814        C  0.62194772  0.92505280  0.43713742    -0.28900
C815        C  0.59245860  0.91632106  0.43683155     0.06700
C816        C  0.58580141  0.88756192  0.42630159    -0.27600
H817        H  0.67952526  0.93647622  0.43535488     0.11400
H818        H  0.71944836  0.90137972  0.42090188     0.12500
H819        H  0.57986120  0.83088960  0.40784147     0.11600
H820        H  0.61987449  0.79555972  0.39453590     0.10800
H821        H  0.67257729  0.78368231  0.38991885     0.16200
H822        H  0.73610248  0.85133834  0.40630060     0.12100
H823        H  0.62718881  0.94724545  0.44519754     0.15000
H824        H  0.56313308  0.88066382  0.42653950     0.14800
C825        C  0.67614839  0.08231083  0.58231656    -0.18100
C826        C  0.65813949  0.05983156  0.56983217    -0.20300
C827        C  0.63084282  0.06630248  0.55275072     0.20400
C828        C  0.62194988  0.09573354  0.54721589    -0.03200
C829        C  0.64030544  0.11852843  0.55960390    -0.06300
C830        C  0.66724124  0.11167503  0.57781533     0.20600
C831        C  0.63135007  0.14807960  0.55477965     0.18800
C832        C  0.60431643  0.15443548  0.53682126    -0.17800
C833        C  0.58602010  0.13183475  0.52481584    -0.20000
C834        C  0.59443129  0.10237041  0.53028515     0.20300
C835        C  0.57558960  0.07947814  0.52004453    -0.33000
C836        C  0.58402007  0.04997482  0.52638132     0.01000
C837        C  0.61203856  0.04378248  0.54210030    -0.24300
C838        C  0.68440331  0.13420021  0.59237898    -0.28900
C839        C  0.67526941  0.16372455  0.58909994     0.06700
C840        C  0.64909417  0.17058935  0.56916609    -0.27600
H841        H  0.69685526  0.07670436  0.59609326     0.11400
H842        H  0.66533911  0.03733831  0.57418912     0.12500
H843        H  0.59703237  0.17692463  0.53271169     0.11600
H844        H  0.56506268  0.13743201  0.51170248     0.10800
H845        H  0.55415171  0.08467260  0.50798797     0.16200
H846        H  0.61900459  0.02131109  0.54723428     0.12100
H847        H  0.70471886  0.12865561  0.60718857     0.15000
H848        H  0.64186465  0.19323541  0.56650908     0.14800
C849        C  0.49974362  0.04441011  0.74044209    -0.18100
C850        C  0.49883111  0.04231431  0.70064551    -0.20300
C851        C  0.50493286  0.01553051  0.68243871     0.20400
C852        C  0.51193316  0.99055078  0.70459388    -0.03200
C853        C  0.51236437  0.99254302  0.74475059    -0.06300
C854        C  0.50641639  0.01967641  0.76273983     0.20600
C855        C  0.51906515  0.96746871  0.76686419     0.18800
C856        C  0.52588630  0.94083755  0.74868934    -0.17800
C857        C  0.52596256  0.93899319  0.70888349    -0.20000
C858        C  0.51891592  0.96367949  0.68664072     0.20300
C859        C  0.51935821  0.96211443  0.64675216    -0.33000
C860        C  0.51270275  0.98698218  0.62442977     0.01000
C861        C  0.50492807  0.01347503  0.64248037    -0.24300
C862        C  0.50749259  0.02159923  0.80266745    -0.28900
C863        C  0.51355331  0.99656894  0.82463325     0.06700
C864        C  0.51915465  0.96957939  0.80673822    -0.27600
H865        H  0.49518854  0.06539409  0.75379571     0.11400
H866        H  0.49363447  0.06173508  0.68407169     0.12500
H867        H  0.53134461  0.92147689  0.76526263     0.11600
H868        H  0.53154950  0.91824892  0.69548352     0.10800
H869        H  0.52540975  0.94159922  0.63301895     0.16200
H870        H  0.50025279  0.03280254  0.62545203     0.12100
H871        H  0.50351033  0.04243891  0.81672209     0.15000
H872        H  0.52441425  0.95045239  0.82392420     0.14800
C873        C  0.45223763  0.96899085  0.20663183    -0.18100
C874        C  0.45291858  0.97085131  0.24632933    -0.20300
C875        C  0.47919992  0.97712405  0.26527872     0.20400
C876        C  0.50524967  0.98103913  0.24421071    -0.03200
C877        C  0.50440945  0.97978926  0.20394464    -0.06300
C878        C  0.47772454  0.97383391  0.18524155     0.20600
C879        C  0.52998010  0.98520309  0.18243482     0.18800
C880        C  0.55646881  0.99056993  0.20166495    -0.17800
C881        C  0.55744965  0.99121430  0.24170107    -0.20000
C882        C  0.53187487  0.98689054  0.26331741     0.20300
C883        C  0.53212491  0.98902054  0.30351845    -0.33000
C884        C  0.50579431  0.98636988  0.32423548     0.01000
C885        C  0.47963439  0.98014337  0.30491471    -0.24300
C886        C  0.47664965  0.97360000  0.14542361    -0.28900
C887        C  0.50157833  0.98016909  0.12352674     0.06700
C888        C  0.52834805  0.98573263  0.14222329    -0.27600
H889        H  0.43160246  0.96436090  0.19260509     0.11400
H890        H  0.43280251  0.96764653  0.26221377     0.12500
H891        H  0.57639401  0.99455996  0.18572974     0.11600
H892        H  0.57811360  0.99567049  0.25573989     0.10800
H893        H  0.55232881  0.99387358  0.31845026     0.16200
H894        H  0.45942248  0.97778250  0.32096919     0.12100
H895        H  0.45587523  0.96940919  0.13143449     0.15000
H896        H  0.54773707  0.99052725  0.12557602     0.14800
C897        C  0.58222875  0.85236047  0.90191999    -0.18100
C898        C  0.60307820  0.82976480  0.89511682    -0.20300
C899        C  0.63338366  0.83483566  0.89853834     0.20400
C900        C  0.64251071  0.86312542  0.90885789    -0.03200
C901        C  0.62154341  0.88580929  0.91592808    -0.06300
C902        C  0.59120547  0.88050556  0.91244834     0.20600
C903        C  0.63107036  0.91387375  0.92639317     0.18800
C904        C  0.66120127  0.91914269  0.92977365    -0.17800
C905        C  0.68183666  0.89683551  0.92272846    -0.20000
C906        C  0.67268763  0.86886788  0.91226427     0.20300
C907        C  0.69345522  0.84661403  0.90553366    -0.33000
C908        C  0.68505449  0.81805613  0.89579355     0.01000
C909        C  0.65475106  0.81229632  0.89219558    -0.24300
C910        C  0.57058823  0.90353724  0.91915579    -0.28900
C911        C  0.58012281  0.93177375  0.92910000     0.06700
C912        C  0.61045357  0.93642663  0.93295164    -0.27600
H913        H  0.55904965  0.84779709  0.89896452     0.11400
H914        H  0.59547324  0.80830875  0.88718312     0.12500
H915        H  0.66883548  0.94058187  0.93776835     0.11600
H916        H  0.70501968  0.90146672  0.92552563     0.10800
H917        H  0.71650465  0.85171322  0.90869040     0.16200
H918        H  0.64785013  0.79047539  0.88480307     0.12100
H919        H  0.54729282  0.89966685  0.91578319     0.15000
H920        H  0.61820654  0.95789351  0.94067794     0.14800
C921        C  0.60437134  0.09750403  0.11583729    -0.18100
C922        C  0.62367345  0.11784153  0.13116381    -0.20300
C923        C  0.64073054  0.13519093  0.10709282     0.20400
C924        C  0.63826187  0.13218907  0.06720057    -0.03200
C925        C  0.61924603  0.11124474  0.05176450    -0.06300
C926        C  0.60212539  0.09389036  0.07620652     0.20600
C927        C  0.61764458  0.10744162  0.01190720     0.18800
C928        C  0.63443387  0.12505184  0.98784276    -0.17800
C929        C  0.65292740  0.14613298  0.00312218    -0.20000
C930        C  0.65513743  0.14977800  0.04273038     0.20300
C931        C  0.67437909  0.17022374  0.05831791    -0.33000
C932        C  0.67755912  0.17255859  0.09797879     0.01000
C933        C  0.66061420  0.15511459  0.12218552    -0.24300
C934        C  0.58337835  0.07299641  0.06057892    -0.28900
C935        C  0.58234642  0.06861082  0.02095169     0.06700
C936        C  0.59948963  0.08591112  0.99682564    -0.27600
H937        H  0.59145896  0.08434755  0.13499838     0.11400
H938        H  0.62531994  0.11995017  0.16187085     0.12500
H939        H  0.63333807  0.12244763  0.95716244     0.11600
H940        H  0.66576634  0.15936099  0.98395975     0.10800
H941        H  0.68782334  0.18334306  0.03970898     0.16200
H942        H  0.66316580  0.15691572  0.15285412     0.12100
H943        H  0.57022833  0.05960227  0.07920659     0.15000
H944        H  0.59843336  0.08276959  0.96619912     0.14800
C945        C  0.10474209  0.67939298  0.82773134    -0.18100
C946        C  0.08284231  0.65888681  0.82114915    -0.20300
C947        C  0.09012401  0.62898755  0.81802384     0.20400
C948        C  0.11977116  0.61964212  0.82221274    -0.03200
C949        C  0.14179945  0.64029326  0.82922375    -0.06300
C950        C  0.13431475  0.67037348  0.83154209     0.20600
C951        C  0.17140740  0.63088499  0.83280186     0.18800
C952        C  0.17877407  0.60100642  0.82987841    -0.17800
C953        C  0.15704143  0.58061695  0.82247762    -0.20000
C954        C  0.12756915  0.58975664  0.81822641     0.20300
C955        C  0.10592968  0.56965293  0.80881127    -0.33000
C956        C  0.07647869  0.57883979  0.80389209     0.01000
C957        C  0.06851831  0.60839277  0.80946522    -0.24300
C958        C  0.15660992  0.69092920  0.83638799    -0.28900
C959        C  0.18630920  0.68174418  0.83879632     0.06700
C960        C  0.19331245  0.65155369  0.83794992    -0.27600
H961        H  0.09857904  0.70237720  0.82936994     0.11400
H962        H  0.06024634  0.66648358  0.81785164     0.12500
H963        H  0.20144469  0.59346406  0.83255360     0.11600
H964        H  0.16334413  0.55773582  0.81956582     0.10800
H965        H  0.11208124  0.54685015  0.80440319     0.16200
H966        H  0.04588015  0.61554766  0.80505085     0.12100
H967        H  0.15092440  0.71406552  0.83688909     0.15000
H968        H  0.21604606  0.64404362  0.83994106     0.14800
C969        C  0.38791430  0.64407371  0.01452121    -0.18100
C970        C  0.36789454  0.66512899  0.00056041    -0.20300
C971        C  0.35990568  0.66527877  0.96190978     0.20400
C972        C  0.37276658  0.64438199  0.93689407    -0.03200
C973        C  0.39337862  0.62348399  0.95083966    -0.06300
C974        C  0.40054617  0.62303703  0.98998028     0.20600
C975        C  0.40625646  0.60261428  0.92581087     0.18800
C976        C  0.39841779  0.60289237  0.88709665    -0.17800
C977        C  0.37758365  0.62325798  0.87341676    -0.20000
C978        C  0.36450510  0.64389259  0.89813777     0.20300
C979        C  0.34279428  0.66358269  0.88498126    -0.33000
C980        C  0.32956620  0.68410947  0.90983351     0.01000
C981        C  0.33869825  0.68538298  0.94804064    -0.24300
C982        C  0.41969833  0.60115693  0.00403233    -0.28900
C983        C  0.43236630  0.58018805  0.97936029     0.06700
C984        C  0.42613577  0.58139679  0.94015427    -0.27600
H985        H  0.39331905  0.64407470  0.04462126     0.11400
H986        H  0.35823701  0.68095899  0.02014765     0.12500
H987        H  0.40802190  0.58702764  0.86751911     0.11600
H988        H  0.37149655  0.62270027  0.84354323     0.10800
H989        H  0.33593291  0.66279267  0.85537117     0.16200
H990        H  0.32837913  0.70110669  0.96725669     0.12100
H991        H  0.42468127  0.60028015  0.03426623     0.15000
H992        H  0.43575174  0.56506581  0.92119648     0.14800
C993        C  0.34497688  0.93012740  0.90537754    -0.18100
C994        C  0.32140788  0.91124142  0.90088869    -0.20300
C995        C  0.32616893  0.88080786  0.90151128     0.20400
C996        C  0.35513027  0.86932703  0.90497102    -0.03200
C997        C  0.37894473  0.88837965  0.90923215    -0.06300
C998        C  0.37369094  0.91888117  0.91040076     0.20600
C999        C  0.40780692  0.87685589  0.91410668     0.18800
C1000       C  0.41265014  0.84646439  0.91359327    -0.17800
C1001       C  0.38904765  0.82759851  0.90945429    -0.20000
C1002       C  0.36020517  0.83879828  0.90568635     0.20300
C1003       C  0.33630816  0.81996900  0.90394506    -0.33000
C1004       C  0.30725860  0.83117162  0.90207573     0.01000
C1005       C  0.30243444  0.86167512  0.90005951    -0.24300
C1006       C  0.39698118  0.93746266  0.91859381    -0.28900
C1007       C  0.42545688  0.92597851  0.92521842     0.06700
C1008       C  0.43102601  0.89583319  0.92144497    -0.27600
H1009       H  0.34064241  0.95351860  0.90590693     0.11400
H1010       H  0.29935709  0.92043707  0.89793541     0.12500
H1011       H  0.43461959  0.83725247  0.91734241     0.11600
H1012       H  0.39329370  0.80419755  0.90999893     0.10800
H1013       H  0.34032949  0.79654860  0.90550230     0.16200
H1014       H  0.28017808  0.87057303  0.89825494     0.12100
H1015       H  0.39276298  0.96079150  0.92153664     0.15000
H1016       H  0.45293569  0.88700630  0.92704660     0.14800
C1017       C  0.21867341  0.79974157  0.60546957    -0.18100
C1018       C  0.21671898  0.79674204  0.64506282    -0.20300
C1019       C  0.22800131  0.77154784  0.66309602     0.20400
C1020       C  0.24024361  0.74859215  0.64077585    -0.03200
C1021       C  0.24218284  0.75160068  0.60076730    -0.06300
C1022       C  0.23192510  0.77757828  0.58323103     0.20600
C1023       C  0.25526166  0.72906462  0.57852237     0.18800
C1024       C  0.26503823  0.70316233  0.59635390    -0.17800
C1025       C  0.26323179  0.70022245  0.63602783    -0.20000
C1026       C  0.25149805  0.72309607  0.65851128     0.20300
C1027       C  0.25171725  0.72134276  0.69844421    -0.33000
C1028       C  0.24087647  0.74478204  0.72109278     0.01000
C1029       C  0.22819227  0.76940536  0.70306529    -0.24300
C1030       C  0.23577980  0.78133093  0.54392589    -0.28900
C1031       C  0.24995327  0.75955487  0.52161451     0.06700
C1032       C  0.25903901  0.73315945  0.53908417    -0.27600
H1033       H  0.21040260  0.81971501  0.59232220     0.11400
H1034       H  0.20701768  0.81445352  0.66167509     0.12500
H1035       H  0.27476700  0.68546886  0.57972841     0.11600
H1036       H  0.27165616  0.68031972  0.64920779     0.10800
H1037       H  0.26102334  0.70190178  0.71187087     0.16200
H1038       H  0.21949917  0.78738886  0.72010218     0.12100
H1039       H  0.22820654  0.80161531  0.53088418     0.15000
H1040       H  0.26933882  0.71595642  0.52213612     0.14800
C1041       C  0.23180395  0.80012048  0.15163994    -0.18100
C1042       C  0.22888896  0.80342693  0.11211076    -0.20300
C1043       C  0.24239333  0.78328357  0.08705753     0.20400
C1044       C  0.25944795  0.75984999  0.10204057    -0.03200
C1045       C  0.26241438  0.75651264  0.14206163    -0.06300
C1046       C  0.24831999  0.77662659  0.16693022     0.20600
C1047       C  0.27921609  0.73292576  0.15714003     0.18800
C1048       C  0.29323255  0.71313985  0.13202790    -0.17800
C1049       C  0.29034370  0.71647236  0.09243020    -0.20000
C1050       C  0.27331372  0.73962339  0.07709346     0.20300
C1051       C  0.26971514  0.74275338  0.03734469    -0.33000
C1052       C  0.25224276  0.76580221  0.02203043     0.01000
C1053       C  0.23890224  0.78608494  0.04735362    -0.24300
C1054       C  0.25073272  0.77281667  0.20661600    -0.28900
C1055       C  0.26714183  0.74914146  0.22214303     0.06700
C1056       C  0.28149728  0.72939982  0.19697700    -0.27600
H1057       H  0.22094011  0.81586481  0.17028701     0.11400
H1058       H  0.21584426  0.82165677  0.10112667     0.12500
H1059       H  0.30632102  0.69494430  0.14302125     0.11600
H1060       H  0.30128249  0.70078076  0.07377845     0.10800
H1061       H  0.28034749  0.72706580  0.01838439     0.16200
H1062       H  0.22566630  0.80413201  0.03621309     0.12100
H1063       H  0.23958728  0.78827422  0.22541335     0.15000
H1064       H  0.29419537  0.71105796  0.20832577     0.14800
C1065       C  0.17298540  0.57981916  0.32291486    -0.18100
C1066       C  0.19512892  0.59994348  0.32961106    -0.20300
C1067       C  0.18854076  0.63007112  0.33019130     0.20400
C1068       C  0.15921028  0.64000426  0.32515063    -0.03200
C1069       C  0.13675118  0.61962927  0.31870612    -0.06300
C1070       C  0.14384631  0.58946574  0.31689661     0.20600
C1071       C  0.10742313  0.62948082  0.31282966     0.18800
C1072       C  0.10084284  0.65961426  0.31409657    -0.17800
C1073       C  0.12313592  0.67980961  0.32030779    -0.20000
C1074       C  0.15245234  0.67028264  0.32549674     0.20300
C1075       C  0.17520270  0.69046629  0.32999903    -0.33000
C1076       C  0.20469421  0.68073773  0.33386141     0.01000
C1077       C  0.21094051  0.65039692  0.33468505    -0.24300
C1078       C  0.12193076  0.56956004  0.30765124    -0.28900
C1079       C  0.09287336  0.57923008  0.30064433     0.06700
C1080       C  0.08550817  0.60911578  0.30433439    -0.27600
H1081       H  0.17874713  0.55671716  0.32179639     0.11400
H1082       H  0.21753632  0.59195813  0.33359230     0.12500
H1083       H  0.07850609  0.66761923  0.30960110     0.11600
H1084       H  0.11749000  0.70294666  0.32051917     0.10800
H1085       H  0.17003780  0.71370853  0.32932713     0.16200
H1086       H  0.23344851  0.64247151  0.33795288     0.12100
H1087       H  0.12763025  0.54651281  0.30470115     0.15000
H1088       H  0.06319985  0.61664178  0.29837213     0.14800
C1089       C  0.35330075  0.56866575  0.44750376    -0.18100
C1090       C  0.33420106  0.59192024  0.43795442    -0.20300
C1091       C  0.34405213  0.62080255  0.43820103     0.20400
C1092       C  0.37322631  0.62640799  0.44928482    -0.03200
C1093       C  0.39265849  0.60278625  0.45874672    -0.06300
C1094       C  0.38266518  0.57381353  0.45741042     0.20600
C1095       C  0.42222790  0.60808151  0.46839283     0.18800
C1096       C  0.43178633  0.63710762  0.46954275    -0.17800
C1097       C  0.41251992  0.66051156  0.46032113    -0.20000
C1098       C  0.38323807  0.65545609  0.44961937     0.20300
C1099       C  0.36417124  0.67864638  0.43773953    -0.33000
C1100       C  0.33549575  0.67289763  0.42465513     0.01000
C1101       C  0.32554595  0.64395118  0.42599610    -0.24300
C1102       C  0.40230329  0.55038251  0.46495205    -0.28900
C1103       C  0.43218466  0.55515943  0.47345415     0.06700
C1104       C  0.44181556  0.58427815  0.47568569    -0.27600
H1105       H  0.34522479  0.54655739  0.44642419     0.11400
H1106       H  0.31182514  0.58724281  0.42964409     0.12500
H1107       H  0.45435243  0.64170978  0.47700233     0.11600
H1108       H  0.42072887  0.68257134  0.46083446     0.10800
H1109       H  0.37217343  0.70077952  0.43651989     0.16200
H1110       H  0.30350699  0.63929547  0.41616856     0.12100
H1111       H  0.39434953  0.52825151  0.46305163     0.15000
H1112       H  0.46465344  0.58842301  0.48223192     0.14800
C1113       C  0.42479403  0.85310734  0.44874121    -0.18100
C1114       C  0.40292564  0.83205020  0.44455489    -0.20300
C1115       C  0.37488557  0.83985689  0.43039566     0.20400
C1116       C  0.36896242  0.86934303  0.42055850    -0.03200
C1117       C  0.39103986  0.89057821  0.42474397    -0.06300
C1118       C  0.41919256  0.88247547  0.43877379     0.20600
C1119       C  0.38486460  0.91992929  0.41484191     0.18800
C1120       C  0.35684701  0.92795121  0.40104560    -0.17800
C1121       C  0.33507694  0.90705042  0.39701348    -0.20000
C1122       C  0.34090127  0.87772291  0.40669417     0.20300
C1123       C  0.31892602  0.85681279  0.40320837    -0.33000
C1124       C  0.32420547  0.82732636  0.41340899     0.01000
C1125       C  0.35254800  0.81892811  0.42646602    -0.24300
C1126       C  0.44116084  0.90381372  0.44234288    -0.28900
C1127       C  0.43518859  0.93320686  0.43215890     0.06700
C1128       C  0.40676120  0.94084164  0.41864654    -0.27600
H1129       H  0.44616290  0.84637050  0.45972178     0.11400
H1130       H  0.40795792  0.80960948  0.45249933     0.12500
H1131       H  0.35174844  0.95044187  0.39335174     0.11600
H1132       H  0.31361220  0.91386221  0.38639599     0.10800
H1133       H  0.29739840  0.86368406  0.39281228     0.16200
H1134       H  0.35694258  0.79640289  0.43461889     0.12100
H1135       H  0.46279663  0.89754422  0.45290307     0.15000
H1136       H  0.40156883  0.96322630  0.41050442     0.14800
C1137       C  0.07836352  0.36507166  0.70771511    -0.18100
C1138       C  0.09824484  0.34243665  0.69771066    -0.20300
C1139       C  0.12694942  0.34869201  0.68580624     0.20400
C1140       C  0.13576087  0.37813471  0.68477831    -0.03200
C1141       C  0.11574321  0.40095012  0.69501483    -0.06300
C1142       C  0.08678696  0.39443795  0.70613389     0.20600
C1143       C  0.12453973  0.43032044  0.69315686     0.18800
C1144       C  0.15330238  0.43666258  0.68186179    -0.17800
C1145       C  0.17301541  0.41415962  0.67156712    -0.20000
C1146       C  0.16434115  0.38490712  0.67246449     0.20300
C1147       C  0.18348238  0.36246521  0.65999271    -0.33000
C1148       C  0.17472739  0.33313736  0.65966397     0.01000
C1149       C  0.14666486  0.32625126  0.67366847    -0.24300
C1150       C  0.06663983  0.41740931  0.71454654    -0.28900
C1151       C  0.07507427  0.44686103  0.71180293     0.06700
C1152       C  0.10429637  0.45294102  0.70168413    -0.27600
H1153       H  0.05624271  0.35960858  0.71622919     0.11400
H1154       H  0.09099353  0.32003804  0.69869424     0.12500
H1155       H  0.16042126  0.45909612  0.68037344     0.11600
H1156       H  0.19493826  0.41968488  0.66229201     0.10800
H1157       H  0.20513200  0.36791873  0.64953229     0.16200
H1158       H  0.13968522  0.30373796  0.67325892     0.12100
H1159       H  0.04423488  0.41234647  0.72227093     0.15000
H1160       H  0.11122787  0.47541248  0.69950980     0.14800
C1161       C  0.39246289  0.31915036  0.56606522    -0.18100
C1162       C  0.41613565  0.33815175  0.56326067    -0.20300
C1163       C  0.41157466  0.36849108  0.56684945     0.20400
C1164       C  0.38293686  0.37966975  0.57446897    -0.03200
C1165       C  0.35909685  0.36050616  0.57739199    -0.06300
C1166       C  0.36382094  0.33012919  0.57266546     0.20600
C1167       C  0.33040475  0.37186656  0.58381097     0.18800
C1168       C  0.32587370  0.40211852  0.58826752    -0.17800
C1169       C  0.34941079  0.42109980  0.58507302    -0.20000
C1170       C  0.37785875  0.41011539  0.57753308     0.20300
C1171       C  0.40096181  0.42915122  0.57093524    -0.33000
C1172       C  0.42911091  0.41828646  0.56135334     0.01000
C1173       C  0.43470335  0.38795648  0.56086339    -0.24300
C1174       C  0.33974901  0.31137181  0.57372885    -0.28900
C1175       C  0.31095467  0.32262630  0.57916558     0.06700
C1176       C  0.30661247  0.35290314  0.58472227    -0.27600
H1177       H  0.39649144  0.29587555  0.56243939     0.11400
H1178       H  0.43790882  0.32915515  0.55739099     0.12500
H1179       H  0.30400511  0.41116365  0.59340209     0.11600
H1180       H  0.34524561  0.44444021  0.58763189     0.10800
H1181       H  0.39672674  0.45258882  0.57123809     0.16200
H1182       H  0.45636362  0.37961477  0.55297015     0.12100
H1183       H  0.34337366  0.28810575  0.56933970     0.15000
H1184       H  0.28460236  0.36184078  0.58922468     0.14800
C1185       C  0.35604354  0.07103477  0.54851142    -0.18100
C1186       C  0.33451964  0.09155540  0.55978878    -0.20300
C1187       C  0.34051425  0.12152941  0.55968558     0.20400
C1188       C  0.36851988  0.13096398  0.54828947    -0.03200
C1189       C  0.39049897  0.11017654  0.53774597    -0.06300
C1190       C  0.38405685  0.08011423  0.53743745     0.20600
C1191       C  0.41881019  0.11946694  0.52728667     0.18800
C1192       C  0.42469899  0.14948238  0.52700817    -0.17800
C1193       C  0.40274865  0.17012071  0.53683565    -0.20000
C1194       C  0.37460136  0.16111677  0.54761680     0.20300
C1195       C  0.35261445  0.18162386  0.55845705    -0.33000
C1196       C  0.32500991  0.17222698  0.57114849     0.01000
C1197       C  0.31910932  0.14216467  0.57133837    -0.24300
C1198       C  0.40557792  0.05970172  0.52547062    -0.28900
C1199       C  0.43373755  0.06879872  0.51492062     0.06700
C1200       C  0.44047166  0.09860863  0.51656631    -0.27600
H1201       H  0.35079379  0.04803344  0.54853390     0.11400
H1202       H  0.31312319  0.08397744  0.56848712     0.12500
H1203       H  0.44624753  0.15702419  0.51891914     0.11600
H1204       H  0.40786690  0.19314618  0.53627332     0.10800
H1205       H  0.35735619  0.20475783  0.55852922     0.16200
H1206       H  0.29781684  0.13480331  0.58084843     0.12100
H1207       H  0.40041181  0.03667959  0.52403302     0.15000
H1208       H  0.46208682  0.10561154  0.50784078     0.14800
C1209       C  0.22708928  0.30290407  0.87839857    -0.18100
C1210       C  0.22657990  0.29980754  0.83864843    -0.20300
C1211       C  0.24058297  0.27568579  0.82107453     0.20400
C1212       C  0.25520688  0.25448119  0.84391361    -0.03200
C1213       C  0.25566700  0.25756345  0.88399743    -0.06300
C1214       C  0.24159094  0.28191576  0.90130766     0.20600
C1215       C  0.27024788  0.23626232  0.90670019     0.18800
C1216       C  0.28406671  0.21204323  0.88924155    -0.17800
C1217       C  0.28368056  0.20903238  0.84959537    -0.20000
C1218       C  0.26938046  0.23014579  0.82674917     0.20300
C1219       C  0.26895600  0.22719428  0.78703537    -0.33000
C1220       C  0.25433226  0.24807663  0.76381390     0.01000
C1221       C  0.24017147  0.27233208  0.78116002    -0.24300
C1222       C  0.24232928  0.28485553  0.94117506    -0.28900
C1223       C  0.25704542  0.26377390  0.96406003     0.06700
C1224       C  0.27086426  0.23951601  0.94644609    -0.27600
H1225       H  0.21613488  0.32174471  0.89123058     0.11400
H1226       H  0.21523185  0.31630037  0.82164428     0.12500
H1227       H  0.29526455  0.19545408  0.90625589     0.11600
H1228       H  0.29458567  0.19015477  0.83678329     0.10800
H1229       H  0.27990606  0.20831011  0.77427487     0.16200
H1230       H  0.22888476  0.28858024  0.76368277     0.12100
H1231       H  0.23157040  0.30369264  0.95430986     0.15000
H1232       H  0.28207738  0.22304678  0.96366049     0.14800
C1233       C  0.29550876  0.20807052  0.35211446    -0.18100
C1234       C  0.29288457  0.21108736  0.39177871    -0.20300
C1235       C  0.27299031  0.23167817  0.40758377     0.20400
C1236       C  0.25548877  0.24926840  0.38306635    -0.03200
C1237       C  0.25813085  0.24621600  0.34304340    -0.06300
C1238       C  0.27831607  0.22560225  0.32746223     0.20600
C1239       C  0.24066036  0.26393163  0.31867057     0.18800
C1240       C  0.22056522  0.28429967  0.33438134    -0.17800
C1241       C  0.21800806  0.28736622  0.37392048    -0.20000
C1242       C  0.23543887  0.27006974  0.39848475     0.20300
C1243       C  0.23319001  0.27337885  0.43816257    -0.33000
C1244       C  0.25057084  0.25608718  0.46303028     0.01000
C1245       C  0.27037588  0.23511952  0.44738057    -0.24300
C1246       C  0.28103536  0.22301286  0.28758335    -0.28900
C1247       C  0.26388910  0.24087927  0.26299302     0.06700
C1248       C  0.24362781  0.26115090  0.27901168    -0.27600
H1249       H  0.31109631  0.19208283  0.34071467     0.11400
H1250       H  0.30650969  0.19736195  0.41010671     0.12500
H1251       H  0.20691313  0.29800625  0.31605894     0.11600
H1252       H  0.20243923  0.30337947  0.38530198     0.10800
H1253       H  0.21778390  0.28950873  0.44966229     0.16200
H1254       H  0.28399724  0.22169542  0.46610504     0.12100
H1255       H  0.29657614  0.20715650  0.27576007     0.15000
H1256       H  0.23004930  0.27488790  0.26061377     0.14800
C1257       C  0.09559771  0.36090075  0.21485316    -0.18100
C1258       C  0.11608624  0.33868697  0.20535899    -0.20300
C1259       C  0.14482121  0.34559352  0.19431106     0.20400
C1260       C  0.15329423  0.37512053  0.19446987    -0.03200
C1261       C  0.13274024  0.39744837  0.20433848    -0.06300
C1262       C  0.10352523  0.39042365  0.21374705     0.20600
C1263       C  0.14118882  0.42690543  0.20327320     0.18800
C1264       C  0.17011716  0.43386222  0.19351394    -0.17800
C1265       C  0.19034394  0.41183771  0.18344885    -0.20000
C1266       C  0.18196695  0.38252481  0.18312925     0.20300
C1267       C  0.20136301  0.36072153  0.16981863    -0.33000
C1268       C  0.19262832  0.33151076  0.16743345     0.01000
C1269       C  0.16477128  0.32380359  0.18126102    -0.24300
C1270       C  0.08263997  0.41308852  0.22052266    -0.28900
C1271       C  0.09080222  0.44261654  0.21810669     0.06700
C1272       C  0.12038203  0.44909238  0.21055548    -0.27600
H1273       H  0.07336402  0.35501267  0.22227112     0.11400
H1274       H  0.10919735  0.31615380  0.20560610     0.12500
H1275       H  0.17689462  0.45642814  0.19269222     0.11600
H1276       H  0.21233573  0.41780401  0.17497456     0.10800
H1277       H  0.22300507  0.36669070  0.15985563     0.16200
H1278       H  0.15799864  0.30125265  0.17961568     0.12100
H1279       H  0.05998743  0.40776801  0.22651195     0.15000
H1280       H  0.12717892  0.47162735  0.20879172     0.14800
C1281       C  0.35438356  0.42552284  0.03252429    -0.18100
C1282       C  0.33284330  0.40445533  0.03664185    -0.20300
C1283       C  0.34007545  0.37675582  0.05155582     0.20400
C1284       C  0.36935661  0.37005217  0.06210335    -0.03200
C1285       C  0.39126651  0.39145337  0.05785174    -0.06300
C1286       C  0.38358391  0.41928477  0.04315944     0.20600
C1287       C  0.42065908  0.38516789  0.06861701     0.18800
C1288       C  0.42777574  0.35725820  0.08327548    -0.17800
C1289       C  0.40604541  0.33600963  0.08742379    -0.20000
C1290       C  0.37664763  0.34213539  0.07704770     0.20300
C1291       C  0.35441217  0.32106140  0.08141728    -0.33000
C1292       C  0.32493599  0.32780691  0.07127227     0.01000
C1293       C  0.31833578  0.35581367  0.05616972    -0.24300
C1294       C  0.40499145  0.44070391  0.03983906    -0.28900
C1295       C  0.43432529  0.43521052  0.05119399     0.06700
C1296       C  0.44210939  0.40706646  0.06513644    -0.27600
H1297       H  0.34814012  0.44681238  0.02120868     0.11400
H1298       H  0.31042679  0.40991152  0.02833845     0.12500
H1299       H  0.45016356  0.35188178  0.09175840     0.11600
H1300       H  0.41224341  0.31478278  0.09894048     0.10800
H1301       H  0.35997406  0.29966922  0.09293394     0.16200
H1302       H  0.29601247  0.36149193  0.04763583     0.12100
H1303       H  0.39849990  0.46206285  0.02893959     0.15000
H1304       H  0.46452346  0.40246968  0.07422881     0.14800
C1305       C  0.43251131  0.13655356  0.02175836    -0.18100
C1306       C  0.41263206  0.15987976  0.02898631    -0.20300
C1307       C  0.38347538  0.15458213  0.03992921     0.20400
C1308       C  0.37425021  0.12534075  0.04272195    -0.03200
C1309       C  0.39428728  0.10183874  0.03544609    -0.06300
C1310       C  0.42368485  0.10738692  0.02525924     0.20600
C1311       C  0.38497603  0.07276654  0.03919209     0.18800
C1312       C  0.35581184  0.06730386  0.04955897    -0.17800
C1313       C  0.33608564  0.09045310  0.05681621    -0.20000
C1314       C  0.34517860  0.11947944  0.05386027     0.20300
C1315       C  0.32593614  0.14262034  0.06340622    -0.33000
C1316       C  0.33515125  0.17182547  0.06271509     0.01000
C1317       C  0.36373715  0.17778422  0.04965022    -0.24300
C1318       C  0.44369306  0.08369765  0.01930964    -0.28900
C1319       C  0.43453816  0.05453204  0.02340069     0.06700
C1320       C  0.40497549  0.04953210  0.03308397    -0.27600
H1321       H  0.45493038  0.14135335  0.01385690     0.11400
H1322       H  0.42022774  0.18209573  0.02661167     0.12500
H1323       H  0.34833247  0.04507942  0.05252233     0.11600
H1324       H  0.31380775  0.08563208  0.06537708     0.10800
H1325       H  0.30389338  0.13774217  0.07297916     0.16200
H1326       H  0.37110702  0.20016062  0.04915716     0.12100
H1327       H  0.46632882  0.08797061  0.01185120     0.15000
H1328       H  0.39740493  0.02736508  0.03642812     0.14800
C1329       C  0.88533747  0.16503283  0.67017389    -0.18100
C1330       C  0.90809082  0.14381399  0.67083919    -0.20300
C1331       C  0.90215740  0.11453785  0.67955387     0.20400
C1332       C  0.87302078  0.10677232  0.68827130    -0.03200
C1333       C  0.85010527  0.12810075  0.68745449    -0.06300
C1334       C  0.85620421  0.15736214  0.67809690     0.20600
C1335       C  0.82100198  0.11997163  0.69546124     0.18800
C1336       C  0.81502410  0.09091783  0.70487103    -0.17800
C1337       C  0.83766174  0.06986901  0.70575951    -0.20000
C1338       C  0.86661027  0.07754614  0.69718090     0.20300
C1339       C  0.88906818  0.05624762  0.69660017    -0.33000
C1340       C  0.91807572  0.06337129  0.68678402     0.01000
C1341       C  0.92460093  0.09276590  0.67894747    -0.24300
C1342       C  0.83300325  0.17823652  0.67637447    -0.28900
C1343       C  0.80379947  0.17003818  0.68362383     0.06700
C1344       C  0.79820822  0.14087252  0.69351090    -0.27600
H1345       H  0.89048924  0.18739609  0.66304944     0.11400
H1346       H  0.93029602  0.15025919  0.66416199     0.12500
H1347       H  0.79277114  0.08440508  0.71119338     0.11600
H1348       H  0.83246071  0.04748116  0.71270747     0.10800
H1349       H  0.88368482  0.03382406  0.70315052     0.16200
H1350       H  0.94685317  0.09855306  0.67143107     0.12100
H1351       H  0.83763681  0.20067874  0.66896838     0.15000
H1352       H  0.77594361  0.13422891  0.69956826     0.14800
C1353       C  0.86369461  0.83543118  0.72278284    -0.18100
C1354       C  0.88343841  0.85671106  0.71094749    -0.20300
C1355       C  0.89471188  0.87684476  0.73718186     0.20400
C1356       C  0.88645281  0.87522847  0.77584441    -0.03200
C1357       C  0.86620631  0.85403505  0.78766882    -0.06300
C1358       C  0.85464304  0.83407983  0.76099761     0.20600
C1359       C  0.85704552  0.85327908  0.82602700     0.18800
C1360       C  0.86874108  0.87299500  0.85241886    -0.17800
C1361       C  0.88904414  0.89373166  0.84080957    -0.20000
C1362       C  0.89787839  0.89522859  0.80256032     0.20300
C1363       C  0.91734008  0.91680975  0.79040108    -0.33000
C1364       C  0.92477585  0.91914264  0.75171798     0.01000
C1365       C  0.91355094  0.89899015  0.72533138    -0.24300
C1366       C  0.83369985  0.81371555  0.77286755    -0.28900
C1367       C  0.82369688  0.81375733  0.81079784     0.06700
C1368       C  0.83580758  0.83331121  0.83720950    -0.27600
H1369       H  0.85511805  0.82034600  0.70190213     0.11400
H1370       H  0.88968467  0.85759728  0.68116114     0.12500
H1371       H  0.86193937  0.87257829  0.88202223     0.11600
H1372       H  0.89751225  0.90889364  0.86166609     0.10800
H1373       H  0.92564120  0.93257515  0.81063231     0.16200
H1374       H  0.91928937  0.90081432  0.69542192     0.12100
H1375       H  0.82433087  0.79875418  0.75240221     0.15000
H1376       H  0.82838550  0.83317671  0.86660098     0.14800
C1377       C  0.09781650  0.84508884  0.77522912    -0.18100
C1378       C  0.07788689  0.86734478  0.76383462    -0.20300
C1379       C  0.08320764  0.89681098  0.77240285     0.20400
C1380       C  0.10916419  0.90384441  0.79214975    -0.03200
C1381       C  0.12921937  0.88140655  0.80369986    -0.06300
C1382       C  0.12354566  0.85178673  0.79543408     0.20600
C1383       C  0.15478950  0.88867839  0.82398030     0.18800
C1384       C  0.16044707  0.91807354  0.83213395    -0.17800
C1385       C  0.14072497  0.94018489  0.82066607    -0.20000
C1386       C  0.11494332  0.93329437  0.80092826     0.20300
C1387       C  0.09464277  0.95538437  0.79058282    -0.33000
C1388       C  0.06818687  0.94872330  0.77184090     0.01000
C1389       C  0.06285701  0.91928312  0.76232547    -0.24300
C1390       C  0.14348943  0.82954679  0.80797967    -0.28900
C1391       C  0.16884627  0.83676085  0.82895986     0.06700
C1392       C  0.17421718  0.86651560  0.83629184    -0.27600
H1393       H  0.09296081  0.82258110  0.76848261     0.11400
H1394       H  0.05813349  0.86145661  0.74859772     0.12500
H1395       H  0.18006637  0.92396622  0.84767419     0.11600
H1396       H  0.14550400  0.96268701  0.82760161     0.10800
H1397       H  0.09923810  0.97783020  0.79809098     0.16200
H1398       H  0.04267001  0.91377376  0.74778930     0.12100
H1399       H  0.13895567  0.80679589  0.80223910     0.15000
H1400       H  0.19366554  0.87263194  0.85206456     0.14800
C1401       C  0.10691616  0.17436663  0.63801944    -0.18100
C1402       C  0.08431741  0.15415354  0.64279873    -0.20300
C1403       C  0.09022507  0.12649341  0.65893504     0.20400
C1404       C  0.11941067  0.11915839  0.66976882    -0.03200
C1405       C  0.14215369  0.13948140  0.66490961    -0.06300
C1406       C  0.13593588  0.16737626  0.64926017     0.20600
C1407       C  0.17109257  0.13191325  0.67622734     0.18800
C1408       C  0.17725118  0.10427821  0.69193566    -0.17800
C1409       C  0.15483915  0.08430125  0.69684449    -0.20000
C1410       C  0.12590640  0.09161168  0.68607063     0.20300
C1411       C  0.10335549  0.07192323  0.69219027    -0.33000
C1412       C  0.07398985  0.07904573  0.68265274     0.01000
C1413       C  0.06756686  0.10627026  0.66527628    -0.24300
C1414       C  0.15880711  0.18768891  0.64549519    -0.28900
C1415       C  0.18779533  0.18015505  0.65692895     0.06700
C1416       C  0.19349390  0.15209029  0.67207291    -0.27600
H1417       H  0.10163012  0.19557800  0.62577088     0.11400
H1418       H  0.06214067  0.16028469  0.63419094     0.12500
H1419       H  0.19940467  0.09817993  0.70072038     0.11600
H1420       H  0.16010407  0.06318419  0.70940494     0.10800
H1421       H  0.10872751  0.05099526  0.70526489     0.16200
H1422       H  0.04501224  0.11207792  0.65802842     0.12100
H1423       H  0.15408319  0.20917965  0.63370269     0.15000
H1424       H  0.21552198  0.14589128  0.68130931     0.14800
C1425       C  0.95898191  0.97903655  0.43855665    -0.18100
C1426       C  0.95449630  0.97964384  0.47805354    -0.20300
C1427       C  0.97451818  0.99360467  0.50216517     0.20400
C1428       C  0.99941356  0.00686887  0.48643782    -0.03200
C1429       C  0.00389036  0.00632721  0.44658073    -0.06300
C1430       C  0.98352368  0.99245490  0.42246544     0.20600
C1431       C  0.02872262  0.01974313  0.43090674     0.18800
C1432       C  0.04905986  0.03316047  0.45505487    -0.17800
C1433       C  0.04467377  0.03361250  0.49450961    -0.20000
C1434       C  0.01987014  0.02066286  0.51049894     0.20300
C1435       C  0.01532125  0.02109103  0.55010970    -0.33000
C1436       C  0.99056064  0.00787988  0.56609047     0.01000
C1437       C  0.97018956  0.99431802  0.54173878    -0.24300
C1438       C  0.98797263  0.99244330  0.38274754    -0.28900
C1439       C  0.01241324  0.00638835  0.36684951     0.06700
C1440       C  0.03276904  0.01971399  0.39133947    -0.27600
H1441       H  0.94317462  0.96818298  0.42058003     0.11400
H1442       H  0.93533101  0.96919636  0.48975206     0.12500
H1443       H  0.06833831  0.04342655  0.44339439     0.11600
H1444       H  0.06066785  0.04416018  0.51252106     0.10800
H1445       H  0.03119366  0.03149571  0.56847202     0.16200
H1446       H  0.95107498  0.98384855  0.55356697     0.12100
H1447       H  0.97223880  0.98195348  0.36426391     0.15000
H1448       H  0.05194446  0.03015571  0.37963419     0.14800
C1449       C  0.00178595  0.95229954  0.98205636    -0.18100
C1450       C  0.99806207  0.95403749  0.94252543    -0.20300
C1451       C  0.99590674  0.98133350  0.92439430     0.20400
C1452       C  0.99774389  0.00716751  0.94633642    -0.03200
C1453       C  0.00168563  0.00541599  0.98622661    -0.06300
C1454       C  0.00350673  0.97782874  0.00411425     0.20600
C1455       C  0.00353290  0.03123395  0.00821507     0.18800
C1456       C  0.00138243  0.05853482  0.99006274    -0.17800
C1457       C  0.99768173  0.06026940  0.95048707    -0.20000
C1458       C  0.99595290  0.03473223  0.92839521     0.20300
C1459       C  0.99335067  0.03624532  0.88857974    -0.33000
C1460       C  0.99235036  0.01057827  0.86642314     0.01000
C1461       C  0.99285590  0.98322165  0.88461449    -0.24300
C1462       C  0.00620037  0.97624505  0.04385437    -0.28900
C1463       C  0.00731698  0.00183285  0.06602990     0.06700
C1464       C  0.00667442  0.02926560  0.04802160    -0.27600
H1465       H  0.00319808  0.93095793  0.99541549     0.11400
H1466       H  0.99691000  0.93400848  0.92611204     0.12500
H1467       H  0.00255145  0.07856122  0.00648043     0.11600
H1468       H  0.99630788  0.08160984  0.93712120     0.10800
H1469       H  0.99313616  0.05740604  0.87463374     0.16200
H1470       H  0.99268876  0.96339495  0.86763472     0.12100
H1471       H  0.00652300  0.95506591  0.05776696     0.15000
H1472       H  0.00694288  0.04901653  0.06514406     0.14800
C1473       C  0.85175648  0.06479975  0.15909823    -0.18100
C1474       C  0.82902900  0.08584263  0.15926120    -0.20300
C1475       C  0.83505153  0.11529848  0.16633698     0.20400
C1476       C  0.86430229  0.12372182  0.17296662    -0.03200
C1477       C  0.88728687  0.10240488  0.17296758    -0.06300
C1478       C  0.88088152  0.07284313  0.16612836     0.20600
C1479       C  0.91655747  0.11060799  0.18011248     0.18800
C1480       C  0.92253866  0.14019189  0.18675164    -0.17800
C1481       C  0.89975531  0.16135721  0.18661927    -0.20000
C1482       C  0.87053843  0.15334337  0.17991346     0.20300
C1483       C  0.84742503  0.17431147  0.18038188    -0.33000
C1484       C  0.81809673  0.16595210  0.17438001     0.01000
C1485       C  0.81224182  0.13636885  0.16718522    -0.24300
C1486       C  0.90360370  0.05170327  0.16674140    -0.28900
C1487       C  0.93290497  0.05941082  0.17433483     0.06700
C1488       C  0.93920810  0.08906731  0.18076980    -0.27600
H1489       H  0.84651269  0.04216258  0.15372953     0.11400
H1490       H  0.80669478  0.07904329  0.15402856     0.12500
H1491       H  0.94484375  0.14696019  0.19222450     0.11600
H1492       H  0.90497774  0.18399676  0.19199634     0.10800
H1493       H  0.85223068  0.19702367  0.18603139     0.16200
H1494       H  0.78983215  0.12964036  0.16225336     0.12100
H1495       H  0.89827107  0.02905435  0.16156564     0.15000
H1496       H  0.96163669  0.09537683  0.18644750     0.14800
C1497       C  0.90083475  0.86176059  0.35456730    -0.18100
C1498       C  0.91993751  0.88330522  0.34214353    -0.20300
C1499       C  0.92038200  0.89159666  0.30366627     0.20400
C1500       C  0.90150789  0.87792016  0.27736216    -0.03200
C1501       C  0.88273244  0.85572334  0.28972390    -0.06300
C1502       C  0.88219829  0.84790028  0.32859442     0.20600
C1503       C  0.86419127  0.84168764  0.26332541     0.18800
C1504       C  0.86440680  0.85024167  0.22492224    -0.17800
C1505       C  0.88261012  0.87267394  0.21279946    -0.20000
C1506       C  0.90119318  0.88659774  0.23878858     0.20300
C1507       C  0.91942204  0.90910687  0.22692588    -0.33000
C1508       C  0.93853018  0.92248361  0.25286427     0.01000
C1509       C  0.93916436  0.91348700  0.29108072    -0.24300
C1510       C  0.86256054  0.82679914  0.34095284    -0.28900
C1511       C  0.84387271  0.81298736  0.31492624     0.06700
C1512       C  0.84521627  0.81993337  0.27603018    -0.27600
H1513       H  0.90060182  0.85596018  0.38452006     0.11400
H1514       H  0.93416013  0.89368373  0.36269253     0.12500
H1515       H  0.85022972  0.83982859  0.20435311     0.11600
H1516       H  0.88218087  0.87911701  0.18306873     0.10800
H1517       H  0.91907095  0.91598045  0.19732787     0.16200
H1518       H  0.95371786  0.92402582  0.31112211     0.12100
H1519       H  0.86147234  0.82132605  0.37100913     0.15000
H1520       H  0.83049040  0.80949757  0.25611321     0.14800
C1521       C  0.11214907  0.84061951  0.28501646    -0.18100
C1522       C  0.09179816  0.86257366  0.27393765    -0.20300
C1523       C  0.09964004  0.89214821  0.27391195     0.20400
C1524       C  0.12851409  0.89949331  0.28455357    -0.03200
C1525       C  0.14896865  0.87738688  0.29599620    -0.06300
C1526       C  0.14076264  0.84776215  0.29648414     0.20600
C1527       C  0.17744271  0.88508178  0.30779960     0.18800
C1528       C  0.18557633  0.91448798  0.30707575    -0.17800
C1529       C  0.16548324  0.93625386  0.29549507    -0.20000
C1530       C  0.13683188  0.92902663  0.28463212     0.20300
C1531       C  0.11622757  0.95099311  0.27485690    -0.33000
C1532       C  0.08698920  0.94420973  0.26544983     0.01000
C1533       C  0.07902134  0.91454061  0.26441178    -0.24300
C1534       C  0.16106669  0.82606051  0.30938102    -0.28900
C1535       C  0.18915230  0.83389261  0.32257113     0.06700
C1536       C  0.19714058  0.86341757  0.32106736    -0.27600
H1537       H  0.10534555  0.81806107  0.28514187     0.11400
H1538       H  0.06978273  0.85642511  0.26578751     0.12500
H1539       H  0.20741110  0.92071280  0.31593320     0.11600
H1540       H  0.17222552  0.95883835  0.29564154     0.10800
H1541       H  0.12289220  0.97360260  0.27571992     0.16200
H1542       H  0.05664350  0.90891304  0.25727008     0.12100
H1543       H  0.15462229  0.80340164  0.31070391     0.15000
H1544       H  0.21874797  0.86965553  0.33089207     0.14800
C1545       C  0.11945962  0.17899151  0.15950230    -0.18100
C1546       C  0.09673404  0.15903930  0.16444875    -0.20300
C1547       C  0.10290836  0.12882849  0.16592393     0.20400
C1548       C  0.13233731  0.11869781  0.16192868    -0.03200
C1549       C  0.15520881  0.13880372  0.15667626    -0.06300
C1550       C  0.14882405  0.16914795  0.15570940     0.20600
C1551       C  0.18455321  0.12850821  0.15325822     0.18800
C1552       C  0.19085314  0.09835970  0.15485998    -0.17800
C1553       C  0.16832334  0.07852971  0.16045346    -0.20000
C1554       C  0.13908524  0.08849525  0.16425729     0.20300
C1555       C  0.11667638  0.06881132  0.17171951    -0.33000
C1556       C  0.08744995  0.07867846  0.17670955     0.01000
C1557       C  0.08047051  0.10863980  0.17277134    -0.24300
C1558       C  0.17196522  0.18903645  0.15179149    -0.28900
C1559       C  0.20142632  0.17888640  0.14898097     0.06700
C1560       C  0.20726530  0.14848115  0.14917809    -0.27600
H1561       H  0.11407576  0.20217977  0.15897001     0.11400
H1562       H  0.07435213  0.16728713  0.16768028     0.12500
H1563       H  0.21330061  0.09012725  0.15235754     0.11600
H1564       H  0.17382061  0.05539456  0.16225107     0.10800
H1565       H  0.12211001  0.04572322  0.17490159     0.16200
H1566       H  0.05802105  0.11634477  0.17728107     0.12100
H1567       H  0.16711107  0.21234255  0.15191410     0.15000
H1568       H  0.22972507  0.14020696  0.14692448     0.14800
loop_ 
_geom_bond_atom_site_label_1 
_geom_bond_atom_site_label_2 
_geom_bond_distance 
_geom_bond_site_symmetry_2 
_ccdc_geom_bond_type 
O1           Ni7   1.917       .  S
O1           C22   1.269       .  A
O2          Ni25   1.925       .  S
O2           C11   1.273       .  A
O3           Ni7   1.896   1_455  S
O3          Ni25   1.909   1_565  S
O3          Ni19   1.919       .  S
O3           H26   0.966       .  S
C4           O21   1.281   1_545  A
C4           O13   1.279       .  A
C4         C1439   1.486       .  S
O5          Ni24   1.923       .  S
O5           C11   1.271       .  A
O6          Ni24   1.905   1_565  S
O6            C8   1.269       .  A
Ni7          O10   1.910       .  S
Ni7          O12   1.906   1_565  S
C8           O18   1.274       .  A
C8         C1532   1.495       .  S
O9          Ni25   1.933       .  S
O9           C15   1.280   1_545  A
O10          C15   1.274   1_655  A
C11        C1556   1.477       .  S
O12          C14   1.270       .  A
O13         Ni24   1.919       .  S
C14          O20   1.276       .  A
C14        C1487   1.491       .  S
C15        C1463   1.474   1_565  S
H16          O17   0.966       .  S
O17         Ni25   1.914       .  S
O17         Ni19   1.897   1_545  S
O17         Ni24   1.888       .  S
O18         Ni19   1.942       .  S
Ni19         O23   1.907   1_455  S
Ni19         O21   1.932       .  S
O20         Ni25   1.939   1_655  S
C22          O23   1.269       .  A
C22        C1508   1.469       .  S
O27         Ni33   1.923       .  S
O27          C48   1.271       .  A
O28         Ni51   1.939       .  S
O28          C37   1.274       .  A
O29         Ni33   1.904       .  S
O29         Ni51   1.923   1_665  S
O29         Ni45   1.928       .  S
O29          H52   0.966       .  S
C30          O47   1.285   1_545  A
C30          O39   1.276   1_655  A
C30        C1460   1.478       .  S
O31         Ni50   1.913       .  S
O31          C37   1.269       .  A
O32         Ni50   1.914   1_565  S
O32          C34   1.270       .  A
Ni33         O36   1.923       .  S
Ni33         O38   1.897   1_565  S
C34          O44   1.273       .  A
C34        C1388   1.494       .  S
O35         Ni51   1.915       .  S
O35          C41   1.274   1_455  A
O36          C41   1.273   1_565  A
C37        C1412   1.489       .  S
O38          C40   1.271       .  A
O39         Ni50   1.908       .  S
C40          O46   1.279       .  A
C40        C1340   1.486       .  S
C41        C1436   1.486       .  S
H42          O43   0.966   1_655  S
O43         Ni51   1.908       .  S
O43         Ni45   1.897   1_445  S
O43         Ni50   1.886       .  S
O44         Ni45   1.935   1_455  S
Ni45         O49   1.917       .  S
Ni45         O47   1.945       .  S
O46         Ni51   1.952   1_655  S
C48          O49   1.273       .  A
C48        C1364   1.477       .  S
O53         Ni59   1.932       .  S
O53          C74   1.274       .  A
O54         Ni77   1.936       .  S
O54          C63   1.276       .  A
O55         Ni59   1.888       .  S
O55         Ni77   1.903       .  S
O55         Ni71   1.905       .  S
O55          H78   0.966       .  S
C56          O73   1.277       .  A
C56          O65   1.280       .  A
C56        C1247   1.491       .  S
O57         Ni76   1.927       .  S
O57          C63   1.273       .  A
O58         Ni76   1.905       .  S
O58          C60   1.269       .  A
Ni59         O62   1.923       .  S
Ni59         O64   1.902       .  S
C60          O70   1.274       .  A
C60        C1559   1.493       .  S
O61         Ni77   1.929       .  S
O61          C67   1.284       .  A
O62          C67   1.280       .  A
C63        C1316   1.490       .  S
O64          C66   1.270       .  A
O65         Ni76   1.935       .  S
C66          O72   1.281       .  A
C66        C1292   1.503       .  S
C67        C1223   1.486   1_554  S
H68          O69   0.966       .  S
O69         Ni77   1.921       .  S
O69         Ni71   1.906       .  S
O69         Ni76   1.898       .  S
O70         Ni71   1.943       .  S
Ni71         O75   1.912       .  S
Ni71         O73   1.917       .  S
O72         Ni77   1.962       .  S
C74          O75   1.268       .  A
C74        C1268   1.478       .  S
O79         Ni85   1.935       .  S
O79         C100   1.274       .  A
O80        Ni103   1.917       .  S
O80          C89   1.267       .  A
O81         Ni85   1.911       .  S
O81        Ni103   1.921       .  S
O81         Ni97   1.924       .  S
O81         H104   0.966       .  S
C82          O99   1.282       .  A
C82          O91   1.277       .  A
C82        C1220   1.488       .  S
O83        Ni102   1.931       .  S
O83          C89   1.271       .  A
O84        Ni102   1.900       .  S
O84          C86   1.269       .  A
Ni85         O88   1.936       .  S
Ni85         O90   1.906       .  S
C86          O96   1.275       .  A
C86        C1415   1.492       .  S
O87        Ni103   1.914       .  S
O87          C93   1.273       .  A
O88          C93   1.278       .  A
C89        C1196   1.481       .  S
O90          C92   1.269       .  A
O91        Ni102   1.915       .  S
C92          O98   1.272       .  A
C92        C1175   1.485       .  S
C93        C1244   1.491       .  S
H94          O95   0.966       .  S
O95        Ni103   1.904       .  S
O95         Ni97   1.909       .  S
O95        Ni102   1.898       .  S
O96         Ni97   1.944       .  S
Ni97        O101   1.926       .  S
Ni97         O99   1.934       .  S
O98        Ni103   1.930       .  S
C100        O101   1.272       .  A
C100       C1148   1.487       .  S
O105       Ni111   1.938       .  S
O105        C126   1.274       .  A
O106       Ni129   1.930       .  S
O106        C115   1.271       .  A
O107       Ni111   1.913       .  S
O107       Ni129   1.926       .  S
O107       Ni123   1.927       .  S
O107        H130   0.966       .  S
C108        O125   1.282       .  A
C108        O117   1.278       .  A
C108       C1031   1.487       .  S
O109       Ni128   1.931       .  S
O109        C115   1.272       .  A
O110       Ni128   1.905       .  S
O110        C112   1.269       .  A
Ni111       O114   1.940       .  S
Ni111       O116   1.905       .  S
C112        O122   1.278       .  A
C112       C1124   1.499       .  S
O113       Ni129   1.917       .  S
O113        C119   1.275       .  A
O114        C119   1.279       .  A
C115       C1535   1.489       .  S
O116        C118   1.270       .  A
O117       Ni128   1.920       .  S
C118        O124   1.276       .  A
C118       C1076   1.492       .  S
C119       C1055   1.496       .  S
H120        O121   0.967       .  S
O121       Ni129   1.902       .  S
O121       Ni123   1.913       .  S
O121       Ni128   1.899       .  S
O122       Ni123   1.957       .  S
Ni123       O127   1.938       .  S
Ni123       O125   1.930       .  S
O124       Ni129   1.942       .  S
C126        O127   1.275       .  A
C126       C1100   1.495       .  S
O131       Ni137   1.919       .  S
O131        C152   1.268       .  A
O132       Ni155   1.939       .  S
O132        C141   1.277       .  A
O133       Ni137   1.903       .  S
O133       Ni155   1.913       .  S
O133       Ni149   1.917       .  S
O133        H156   0.967       .  S
C134        O151   1.277       .  A
C134        O143   1.279       .  A
C134       C1052   1.498   1_556  S
O135       Ni154   1.925       .  S
O135        C141   1.273       .  A
O136       Ni154   1.909       .  S
O136        C138   1.268       .  A
Ni137       O140   1.910       .  S
Ni137       O142   1.895       .  S
C138        O148   1.271       .  A
C138       C1004   1.485       .  S
O139       Ni155   1.937       .  S
O139        C145   1.282       .  A
O140        C145   1.274       .  A
C141       C1391   1.497       .  S
O142        C144   1.269       .  A
O143       Ni154   1.935       .  S
C144        O150   1.278       .  A
C144        C959   1.486       .  S
C145       C1028   1.487       .  S
H146        O147   0.966       .  S
O147       Ni155   1.927       .  S
O147       Ni149   1.908       .  S
O147       Ni154   1.907       .  S
O148       Ni149   1.924       .  S
Ni149       O153   1.911       .  S
Ni149       O151   1.928       .  S
O150       Ni155   1.942       .  S
C152        O153   1.267       .  A
C152        C980   1.473       .  S
O157       Ni163   1.928       .  S
O157        C178   1.273   1_556  A
O158       Ni181   1.915       .  S
O158        C167   1.269       .  A
O159       Ni163   1.906       .  S
O159       Ni181   1.916   1_545  S
O159       Ni175   1.926   1_556  S
O159        H182   0.966       .  S
C160        O177   1.283       .  A
C160        O169   1.279       .  A
C160        C887   1.485       .  S
O161       Ni180   1.925   1_556  S
O161        C167   1.269       .  A
O162       Ni180   1.903   1_545  S
O162        C164   1.268       .  A
Ni163       O166   1.924       .  S
Ni163       O168   1.910   1_545  S
C164        O174   1.273       .  A
C164       C1319   1.496       .  S
O165       Ni181   1.911       .  S
O165        C171   1.272       .  A
O166        C171   1.273   1_545  A
C167       C1007   1.470       .  S
O168        C170   1.273       .  A
O169       Ni180   1.916       .  S
C170        O176   1.275       .  A
C170        C911   1.491       .  S
C171        C863   1.465       .  S
H172        O173   0.967   1_554  S
O173       Ni181   1.904       .  S
O173       Ni175   1.898   1_566  S
O173       Ni180   1.894   1_556  S
O174       Ni175   1.944       .  S
Ni175       O179   1.907       .  S
Ni175       O177   1.939   1_545  S
O176       Ni181   1.939       .  S
C178        O179   1.269       .  A
C178        C935   1.475       .  S
O183       Ni189   1.918       .  S
O183        C204   1.270       .  A
O184       Ni207   1.916       .  S
O184        C193   1.270       .  A
O185       Ni189   1.886       .  S
O185       Ni207   1.894   1_565  S
O185       Ni201   1.908       .  S
O185        H208   0.966       .  S
C186        O203   1.277       .  A
C186        O195   1.277   1_565  A
C186        C884   1.476       .  S
O187       Ni206   1.932       .  S
O187        C193   1.272       .  A
O188       Ni206   1.899   1_565  S
O188        C190   1.269       .  A
Ni189       O192   1.912       .  S
Ni189       O194   1.911       .  S
C190        O200   1.281       .  A
C190       C1127   1.499       .  S
O191       Ni207   1.938       .  S
O191        C197   1.285   1_545  A
O192        C197   1.278       .  A
C193       C1199   1.473       .  S
O194        C196   1.269   1_565  A
O195       Ni206   1.922       .  S
C196        O202   1.274       .  A
C196        C836   1.496       .  S
C197        C860   1.478       .  S
H198        O199   0.966       .  S
O199       Ni207   1.919       .  S
O199       Ni201   1.911   1_545  S
O199       Ni206   1.895       .  S
O200       Ni201   1.959       .  S
Ni201       O205   1.923       .  S
Ni201       O203   1.929       .  S
O202       Ni207   1.940       .  S
C204        O205   1.273       .  A
C204        C815   1.476       .  S
O209       Ni215   1.914       .  S
O209        C230   1.268       .  A
O210       Ni233   1.906       .  S
O210        C219   1.267       .  A
O211       Ni215   1.916       .  S
O211       Ni233   1.914       .  S
O211       Ni227   1.927       .  S
O211        H234   0.966       .  S
C212        O229   1.277       .  A
C212        O221   1.274       .  A
C212        C743   1.490       .  S
O213       Ni232   1.934       .  S
O213        C219   1.273       .  A
O214       Ni232   1.906       .  S
O214        C216   1.272       .  A
Ni215       O218   1.915       .  S
Ni215       O220   1.906       .  S
C216        O226   1.273       .  A
C216        C767   1.489       .  S
O217       Ni233   1.917       .  S
O217        C223   1.271       .  A
O218        C223   1.272       .  A
C219        C791   1.480       .  S
O220        C222   1.270       .  A
O221       Ni232   1.920       .  S
C222        O228   1.275       .  A
C222        C812   1.486       .  S
C223        C716   1.485       .  S
H224        O225   0.966       .  S
O225       Ni233   1.914       .  S
O225       Ni227   1.916       .  S
O225       Ni232   1.910       .  S
O226       Ni227   1.939       .  S
Ni227       O231   1.912       .  S
Ni227       O229   1.927       .  S
O228       Ni233   1.930       .  S
C230        O231   1.268       .  A
C230       C1511   1.468       .  S
O235       Ni241   1.916       .  S
O235        C256   1.268       .  A
O236       Ni259   1.930       .  S
O236        C245   1.273       .  A
O237       Ni241   1.889       .  S
O237       Ni259   1.910       .  S
O237       Ni253   1.914       .  S
O237        H260   0.966       .  S
C238        O255   1.280       .  A
C238        O247   1.278       .  A
C238        C719   1.484       .  S
O239       Ni258   1.917       .  S
O239        C245   1.271       .  A
O240       Ni258   1.911       .  S
O240        C242   1.269       .  A
Ni241       O244   1.910       .  S
Ni241       O246   1.892       .  S
C242        O252   1.272       .  A
C242        C668   1.492       .  S
O243       Ni259   1.937       .  S
O243        C249   1.283       .  A
O244        C249   1.276       .  A
C245        C692   1.485       .  S
O246        C248   1.268       .  A
O247       Ni258   1.923       .  S
C248        O254   1.277       .  A
C248        C908   1.496       .  S
C249        C740   1.485   1_556  S
H250        O251   0.966       .  S
O251       Ni259   1.922       .  S
O251       Ni253   1.904       .  S
O251       Ni258   1.898       .  S
O252       Ni253   1.934       .  S
Ni253       O257   1.923       .  S
Ni253       O255   1.919       .  S
O254       Ni259   1.954       .  S
C256        O257   1.270       .  A
C256       C1367   1.479       .  S
O261       Ni267   1.915       .  S
O261        C282   1.268       .  A
O262       Ni285   1.910       .  S
O262        C271   1.267       .  A
O263       Ni267   1.912       .  S
O263       Ni285   1.913       .  S
O263       Ni279   1.913       .  S
O263        H286   0.966       .  S
C264        O281   1.275       .  A
C264        O273   1.274       .  A
C264        C572   1.487   1_554  S
O265       Ni284   1.921       .  S
O265        C271   1.269       .  A
O266       Ni284   1.913       .  S
O266        C268   1.272       .  A
Ni267       O270   1.906       .  S
Ni267       O272   1.905       .  S
C268        O278   1.278       .  A
C268        C647   1.497       .  S
O269       Ni285   1.925       .  S
O269        C275   1.277       .  A
O270        C275   1.272       .  A
C271        C623   1.464       .  S
O272        C274   1.269       .  A
O273       Ni284   1.918       .  S
C274        O280   1.271       .  A
C274       C1484   1.485       .  S
C275        C599   1.481       .  S
H276        O277   0.966       .  S
O277       Ni285   1.920       .  S
O277       Ni279   1.911       .  S
O277       Ni284   1.910       .  S
O278       Ni279   1.944       .  S
Ni279       O283   1.912       .  S
Ni279       O281   1.921       .  S
O280       Ni285   1.930       .  S
C282        O283   1.269       .  A
C282        C932   1.471       .  S
O287       Ni293   1.933       .  S
O287        C308   1.273       .  A
O288       Ni311   1.924       .  S
O288        C297   1.270       .  A
O289       Ni293   1.904       .  S
O289       Ni311   1.917       .  S
O289       Ni305   1.923       .  S
O289        H312   0.966       .  S
C290        O307   1.281       .  A
C290        O299   1.274       .  A
C290        C596   1.477       .  S
O291       Ni310   1.906       .  S
O291        C297   1.265       .  A
O292       Ni310   1.893       .  S
O292        C294   1.267       .  A
Ni293       O296   1.927       .  S
Ni293       O298   1.901       .  S
C294        O304   1.276       .  A
C294        C548   1.481       .  S
O295       Ni311   1.919       .  S
O295        C301   1.277       .  A
O296        C301   1.278       .  A
C297        C524   1.477       .  S
O298        C300   1.269       .  A
O299       Ni310   1.902       .  S
C300        O306   1.271       .  A
C300       C1343   1.484       .  S
C301        C575   1.488       .  S
H302        O303   0.966       .  S
O303       Ni311   1.911       .  S
O303       Ni305   1.905       .  S
O303       Ni310   1.893       .  S
O304       Ni305   1.945       .  S
Ni305       O309   1.926       .  S
Ni305       O307   1.926       .  S
O306       Ni311   1.928       .  S
C308        O309   1.272       .  A
C308        C839   1.489       .  S
O313       Ni319   1.931       .  S
O313        C334   1.273   1_554  A
O314       Ni337   1.928       .  S
O314        C323   1.275       .  A
O315       Ni319   1.900       .  S
O315       Ni337   1.920       .  S
O315       Ni331   1.921   1_554  S
O315        H338   0.967       .  S
C316        O333   1.278       .  A
C316        O325   1.278       .  A
C316        C476   1.477       .  S
O317       Ni336   1.935   1_554  S
O317        C323   1.274       .  A
O318       Ni336   1.911       .  S
O318        C320   1.271       .  A
Ni319       O322   1.923       .  S
Ni319       O324   1.905       .  S
C320        O330   1.270       .  A
C320        C695   1.488       .  S
O321       Ni337   1.916       .  S
O321        C327   1.273       .  A
O322        C327   1.274       .  A
C323        C644   1.490       .  S
O324        C326   1.273       .  A
O325       Ni336   1.924       .  S
C326        O332   1.282       .  A
C326       C1295   1.498       .  S
C327        C500   1.481       .  S
H328        O329   0.966       .  S
O329       Ni337   1.905   1_556  S
O329       Ni331   1.900       .  S
O329       Ni336   1.893       .  S
O330       Ni331   1.927       .  S
Ni331       O335   1.903       .  S
Ni331       O333   1.929       .  S
O332       Ni337   1.968       .  S
C334        O335   1.267       .  A
C334        C983   1.474       .  S
O339       Ni345   1.924       .  S
O339        C360   1.270       .  A
O340       Ni363   1.913       .  S
O340        C349   1.271       .  A
O341       Ni345   1.894       .  S
O341       Ni363   1.901       .  S
O341       Ni357   1.904       .  S
O341        H364   0.966       .  S
C342        O359   1.275       .  A
C342        O351   1.276       .  A
C342        C479   1.481       .  S
O343       Ni362   1.935       .  S
O343        C349   1.275       .  A
O344       Ni362   1.917       .  S
O344        C346   1.274       .  A
Ni345       O348   1.913       .  S
Ni345       O350   1.907       .  S
C346        O356   1.274       .  A
C346        C551   1.490       .  S
O347       Ni363   1.937       .  S
O347        C353   1.282       .  A
O348        C353   1.278       .  A
C349        C788   1.483       .  S
O350        C352   1.269       .  A
O351       Ni362   1.926       .  S
C352        O358   1.276       .  A
C352       C1103   1.500       .  S
C353        C503   1.480       .  S
H354        O355   0.966       .  S
O355       Ni363   1.924       .  S
O355       Ni357   1.916       .  S
O355       Ni362   1.905       .  S
O356       Ni357   1.933       .  S
Ni357       O361   1.918       .  S
Ni357       O359   1.923       .  S
O358       Ni363   1.949       .  S
C360        O361   1.268       .  A
C360       C1172   1.471       .  S
O365       Ni371   1.930       .  S
O365        C386   1.272       .  A
O366       Ni389   1.920   1_655  S
O366        C375   1.269       .  A
O367       Ni371   1.899       .  S
O367       Ni389   1.917       .  S
O367       Ni383   1.919       .  S
O367        H390   0.967       .  S
C368        O385   1.283       .  A
C368        O377   1.275   1_455  A
C368        C431   1.483       .  S
O369       Ni388   1.917       .  S
O369        C375   1.268       .  A
O370       Ni388   1.900       .  S
O370        C372   1.269       .  A
Ni371       O374   1.924       .  S
Ni371       O376   1.896       .  S
C372        O382   1.273       .  A
C372        C764   1.491       .  S
O373       Ni389   1.921       .  S
O373        C379   1.276       .  A
O374        C379   1.277       .  A
C375        C620   1.482       .  S
O376        C378   1.267       .  A
O377       Ni388   1.904       .  S
C378        O384   1.273       .  A
C378       C1271   1.487       .  S
C379        C455   1.486       .  S
H380        O381   0.966       .  S
O381       Ni389   1.911       .  S
O381       Ni383   1.910       .  S
O381       Ni388   1.892   1_455  S
O382       Ni383   1.939   1_655  S
Ni383       O387   1.922       .  S
Ni383       O385   1.940       .  S
O384       Ni389   1.938       .  S
C386        O387   1.271       .  A
C386       C1079   1.477       .  S
O391       Ni397   1.923       .  S
O391        C412   1.269       .  A
O392       Ni415   1.913       .  S
O392        C401   1.269       .  A
O393       Ni397   1.897       .  S
O393       Ni415   1.901   1_455  S
O393       Ni409   1.907       .  S
O393        H416   0.967   1_455  S
C394        O411   1.274   1_655  A
C394        O403   1.273       .  A
C394        C452   1.482       .  S
O395       Ni414   1.920       .  S
O395        C401   1.270       .  A
O396       Ni414   1.900       .  S
O396        C398   1.270       .  A
Ni397       O400   1.912       .  S
Ni397       O402   1.910       .  S
C398        O408   1.277       .  A
C398        C671   1.488       .  S
O399       Ni415   1.938       .  S
O399        C405   1.283   1_655  A
O400        C405   1.277       .  A
C401        C527   1.468       .  S
O402        C404   1.269       .  A
O403       Ni414   1.921       .  S
C404        O410   1.271       .  A
C404       C1151   1.491       .  S
C405        C428   1.484       .  S
H406        O407   0.965   1_455  S
O407       Ni415   1.925       .  S
O407       Ni409   1.917   1_655  S
O407       Ni414   1.905       .  S
O408       Ni409   1.949   1_655  S
Ni409       O413   1.921       .  S
Ni409       O411   1.915       .  S
O410       Ni415   1.930   1_455  S
C412        O413   1.270       .  A
C412        C956   1.474       .  S
C417        C418   1.398       .  A
C417        C422   1.404   1_655  A
C417        H433   1.084       .  S
C418        C419   1.403       .  A
C418        H434   1.084       .  S
C419        C429   1.405       .  A
C419        C420   1.414   1_655  A
C420        C426   1.408       .  A
C420        C421   1.412       .  A
C421        C423   1.415       .  A
C421        C422   1.408       .  A
C422        C430   1.398       .  A
C423        C432   1.408       .  A
C423        C424   1.403       .  A
C424        C425   1.400       .  A
C424        H435   1.084       .  S
C425        C426   1.405       .  A
C425        H436   1.084       .  S
C426        C427   1.401       .  A
C427        C428   1.411       .  A
C427        H437   1.084       .  S
C428        C429   1.406   1_455  A
C429        H438   1.084       .  S
C430        C431   1.410       .  A
C430        H439   1.084   1_455  S
C431        C432   1.406       .  A
C432        H440   1.084       .  S
C441        C442   1.397   1_554  A
C441        C446   1.403       .  A
C441        H457   1.084       .  S
C442        C443   1.402       .  A
C442        H458   1.084       .  S
C443        C453   1.402       .  A
C443        C444   1.413       .  A
C444        C450   1.409   1_455  A
C444        C445   1.412   1_556  A
C445        C447   1.413   1_455  A
C445        C446   1.409       .  A
C446        C454   1.398       .  A
C447        C456   1.408       .  A
C447        C448   1.404       .  A
C448        C449   1.401   1_554  A
C448        H459   1.084       .  S
C449        C450   1.405       .  A
C449        H460   1.084       .  S
C450        C451   1.403       .  A
C451        C452   1.411       .  A
C451        H461   1.084       .  S
C452        C453   1.405   1_655  A
C453        H462   1.084       .  S
C454        C455   1.408       .  A
C454        H463   1.084       .  S
C455        C456   1.410   1_455  A
C456        H464   1.084       .  S
C465        C466   1.399       .  A
C465        C470   1.404       .  A
C465        H481   1.084       .  S
C466        C467   1.404       .  A
C466        H482   1.084       .  S
C467        C477   1.405       .  A
C467        C468   1.413       .  A
C468        C474   1.411       .  A
C468        C469   1.414       .  A
C469        C471   1.413       .  A
C469        C470   1.411       .  A
C470        C478   1.403       .  A
C471        C480   1.407       .  A
C471        C472   1.404       .  A
C472        C473   1.400       .  A
C472        H483   1.083       .  S
C473        C474   1.404       .  A
C473        H484   1.084       .  S
C474        C475   1.404       .  A
C475        C476   1.406       .  A
C475        H485   1.084       .  S
C476        C477   1.406       .  A
C477        H486   1.085       .  S
C478        C479   1.406       .  A
C478        H487   1.084       .  S
C479        C480   1.407       .  A
C480        H488   1.084       .  S
C489        C490   1.393       .  A
C489        C494   1.402       .  A
C489        H505   1.084       .  S
C490        C491   1.402       .  A
C490        H506   1.084       .  S
C491        C501   1.394       .  A
C491        C492   1.410       .  A
C492        C498   1.412       .  A
C492        C493   1.412       .  A
C493        C495   1.413       .  A
C493        C494   1.410       .  A
C494        C502   1.394       .  A
C495        C504   1.412       .  A
C495        C496   1.405       .  A
C496        C497   1.404       .  A
C496        H507   1.083       .  S
C497        C498   1.405       .  A
C497        H508   1.083       .  S
C498        C499   1.410       .  A
C499        C500   1.408       .  A
C499        H509   1.084       .  S
C500        C501   1.407       .  A
C501        H510   1.085       .  S
C502        C503   1.406       .  A
C502        H511   1.085       .  S
C503        C504   1.408       .  A
C504        H512   1.084       .  S
C513        C514   1.399       .  A
C513        C518   1.404       .  A
C513        H529   1.083       .  S
C514        C515   1.403       .  A
C514        H530   1.084       .  S
C515        C525   1.406       .  A
C515        C516   1.415       .  A
C516        C522   1.409       .  A
C516        C517   1.411       .  A
C517        C519   1.415       .  A
C517        C518   1.410       .  A
C518        C526   1.401       .  A
C519        C528   1.405       .  A
C519        C520   1.402       .  A
C520        C521   1.399       .  A
C520        H531   1.084       .  S
C521        C522   1.404       .  A
C521        H532   1.084       .  S
C522        C523   1.399       .  A
C523        C524   1.408       .  A
C523        H533   1.085       .  S
C524        C525   1.404       .  A
C525        H534   1.084       .  S
C526        C527   1.405       .  A
C526        H535   1.085       .  S
C527        C528   1.402       .  A
C528        H536   1.084       .  S
C537        C538   1.396       .  A
C537        C542   1.403       .  A
C537        H553   1.084       .  S
C538        C539   1.402       .  A
C538        H554   1.084       .  S
C539        C549   1.397       .  A
C539        C540   1.410       .  A
C540        C546   1.413       .  A
C540        C541   1.414       .  A
C541        C543   1.411       .  A
C541        C542   1.411       .  A
C542        C550   1.400       .  A
C543        C552   1.410       .  A
C543        C544   1.406       .  A
C544        C545   1.404       .  A
C544        H555   1.083       .  S
C545        C546   1.405       .  A
C545        H556   1.083       .  S
C546        C547   1.412       .  A
C547        C548   1.408       .  A
C547        H557   1.084       .  S
C548        C549   1.406       .  A
C549        H558   1.085       .  S
C550        C551   1.408       .  A
C550        H559   1.084       .  S
C551        C552   1.412       .  A
C552        H560   1.084       .  S
C561        C562   1.398       .  A
C561        C566   1.403       .  A
C561        H577   1.084       .  S
C562        C563   1.404       .  A
C562        H578   1.084       .  S
C563        C573   1.401       .  A
C563        C564   1.410       .  A
C564        C570   1.412       .  A
C564        C565   1.413       .  A
C565        C567   1.410       .  A
C565        C566   1.412       .  A
C566        C574   1.404       .  A
C567        C576   1.404       .  A
C567        C568   1.404       .  A
C568        C569   1.400       .  A
C568        H579   1.083       .  S
C569        C570   1.404       .  A
C569        H580   1.084       .  S
C570        C571   1.406       .  A
C571        C572   1.409       .  A
C571        H581   1.084       .  S
C572        C573   1.410       .  A
C573        H582   1.084       .  S
C574        C575   1.409       .  A
C574        H583   1.084       .  S
C575        C576   1.410       .  A
C576        H584   1.084       .  S
C585        C586   1.397       .  A
C585        C590   1.402       .  A
C585        H601   1.084       .  S
C586        C587   1.404       .  A
C586        H602   1.084       .  S
C587        C597   1.395       .  A
C587        C588   1.407       .  A
C588        C594   1.414       .  A
C588        C589   1.408       .  A
C589        C591   1.407       .  A
C589        C590   1.415       .  A
C590        C598   1.404       .  A
C591        C600   1.396       .  A
C591        C592   1.404       .  A
C592        C593   1.397       .  A
C592        H603   1.084       .  S
C593        C594   1.401       .  A
C593        H604   1.084       .  S
C594        C595   1.402       .  A
C595        C596   1.404       .  A
C595        H605   1.084       .  S
C596        C597   1.410       .  A
C597        H606   1.084       .  S
C598        C599   1.405       .  A
C598        H607   1.084       .  S
C599        C600   1.411       .  A
C600        H608   1.084       .  S
C609        C610   1.397       .  A
C609        C614   1.402       .  A
C609        H625   1.084       .  S
C610        C611   1.404       .  A
C610        H626   1.084       .  S
C611        C621   1.399       .  A
C611        C612   1.409       .  A
C612        C618   1.413       .  A
C612        C613   1.411       .  A
C613        C615   1.411       .  A
C613        C614   1.414       .  A
C614        C622   1.401       .  A
C615        C624   1.404       .  A
C615        C616   1.404       .  A
C616        C617   1.401       .  A
C616        H627   1.084       .  S
C617        C618   1.404       .  A
C617        H628   1.084       .  S
C618        C619   1.407       .  A
C619        C620   1.407       .  A
C619        H629   1.084       .  S
C620        C621   1.409       .  A
C621        H630   1.084       .  S
C622        C623   1.399       .  A
C622        H631   1.085       .  S
C623        C624   1.405       .  A
C624        H632   1.085       .  S
C633        C634   1.402       .  A
C633        C638   1.405       .  A
C633        H649   1.083       .  S
C634        C635   1.404       .  A
C634        H650   1.083       .  S
C635        C645   1.410       .  A
C635        C636   1.412       .  A
C636        C642   1.411       .  A
C636        C637   1.418       .  A
C637        C639   1.410       .  A
C637        C638   1.412       .  A
C638        C646   1.410       .  A
C639        C648   1.406       .  A
C639        C640   1.405       .  A
C640        C641   1.401       .  A
C640        H651   1.084       .  S
C641        C642   1.405       .  A
C641        H652   1.084       .  S
C642        C643   1.407       .  A
C643        C644   1.410       .  A
C643        H653   1.084       .  S
C644        C645   1.408       .  A
C645        H654   1.084       .  S
C646        C647   1.411       .  A
C646        H655   1.084       .  S
C647        C648   1.412       .  A
C648        H656   1.084       .  S
C657        C658   1.397       .  A
C657        C662   1.403       .  A
C657        H673   1.084       .  S
C658        C659   1.403       .  A
C658        H674   1.084       .  S
C659        C669   1.402       .  A
C659        C660   1.411       .  A
C660        C666   1.411       .  A
C660        C661   1.415       .  A
C661        C663   1.413       .  A
C661        C662   1.410       .  A
C662        C670   1.399       .  A
C663        C672   1.412       .  A
C663        C664   1.405       .  A
C664        C665   1.404       .  A
C664        H675   1.083       .  S
C665        C666   1.406       .  A
C665        H676   1.083       .  S
C666        C667   1.411       .  A
C667        C668   1.412       .  A
C667        H677   1.084       .  S
C668        C669   1.409       .  A
C669        H678   1.084       .  S
C670        C671   1.408       .  A
C670        H679   1.084       .  S
C671        C672   1.410       .  A
C672        H680   1.084       .  S
C681        C682   1.393       .  A
C681        C686   1.401       .  A
C681        H697   1.084       .  S
C682        C683   1.401       .  A
C682        H698   1.084       .  S
C683        C693   1.393       .  A
C683        C684   1.409       .  A
C684        C690   1.413       .  A
C684        C685   1.413       .  A
C685        C687   1.411       .  A
C685        C686   1.410       .  A
C686        C694   1.395       .  A
C687        C696   1.412       .  A
C687        C688   1.407       .  A
C688        C689   1.405       .  A
C688        H699   1.083       .  S
C689        C690   1.406       .  A
C689        H700   1.083       .  S
C690        C691   1.414       .  A
C691        C692   1.410       .  A
C691        H701   1.084       .  S
C692        C693   1.407       .  A
C693        H702   1.084       .  S
C694        C695   1.406       .  A
C694        H703   1.084       .  S
C695        C696   1.413       .  A
C696        H704   1.084       .  S
C705        C706   1.402       .  A
C705        C710   1.405       .  A
C705        H721   1.084       .  S
C706        C707   1.405       .  A
C706        H722   1.083       .  S
C707        C717   1.408       .  A
C707        C708   1.412       .  A
C708        C714   1.410       .  A
C708        C709   1.412       .  A
C709        C711   1.411       .  A
C709        C710   1.411       .  A
C710        C718   1.406       .  A
C711        C720   1.398       .  A
C711        C712   1.402       .  A
C712        C713   1.395       .  A
C712        H723   1.084       .  S
C713        C714   1.402       .  A
C713        H724   1.084       .  S
C714        C715   1.397       .  A
C715        C716   1.407       .  A
C715        H725   1.084       .  S
C716        C717   1.411       .  A
C717        H726   1.084       .  S
C718        C719   1.411       .  A
C718        H727   1.084       .  S
C719        C720   1.406       .  A
C720        H728   1.084       .  S
C729        C730   1.399       .  A
C729        C734   1.405       .  A
C729        H745   1.084       .  S
C730        C731   1.402       .  A
C730        H746   1.084       .  S
C731        C741   1.407       .  A
C731        C732   1.415       .  A
C732        C738   1.408       .  A
C732        C733   1.413       .  A
C733        C735   1.415       .  A
C733        C734   1.407       .  A
C734        C742   1.399       .  A
C735        C744   1.409       .  A
C735        C736   1.403       .  A
C736        C737   1.400       .  A
C736        H747   1.084       .  S
C737        C738   1.405       .  A
C737        H748   1.084       .  S
C738        C739   1.401       .  A
C739        C740   1.412       .  A
C739        H749   1.084       .  S
C740        C741   1.405       .  A
C741        H750   1.084       .  S
C742        C743   1.412       .  A
C742        H751   1.084       .  S
C743        C744   1.408       .  A
C744        H752   1.084       .  S
C753        C754   1.406       .  A
C753        C758   1.407       .  A
C753        H769   1.083       .  S
C754        C755   1.407       .  A
C754        H770   1.083       .  S
C755        C765   1.415       .  A
C755        C756   1.413       .  A
C756        C762   1.408       .  A
C756        C757   1.414       .  A
C757        C759   1.411       .  A
C757        C758   1.411       .  A
C758        C766   1.412       .  A
C759        C768   1.397       .  A
C759        C760   1.401       .  A
C760        C761   1.393       .  A
C760        H771   1.084       .  S
C761        C762   1.401       .  A
C761        H772   1.084       .  S
C762        C763   1.394       .  A
C763        C764   1.408       .  A
C763        H773   1.084       .  S
C764        C765   1.413       .  A
C765        H774   1.084       .  S
C766        C767   1.414       .  A
C766        H775   1.084       .  S
C767        C768   1.405       .  A
C768        H776   1.084       .  S
C777        C778   1.399       .  A
C777        C782   1.404       .  A
C777        H793   1.084       .  S
C778        C779   1.403       .  A
C778        H794   1.084       .  S
C779        C789   1.406       .  A
C779        C780   1.413       .  A
C780        C786   1.411       .  A
C780        C781   1.415       .  A
C781        C783   1.413       .  A
C781        C782   1.411       .  A
C782        C790   1.403       .  A
C783        C792   1.408       .  A
C783        C784   1.404       .  A
C784        C785   1.402       .  A
C784        H795   1.083       .  S
C785        C786   1.405       .  A
C785        H796   1.084       .  S
C786        C787   1.407       .  A
C787        C788   1.409       .  A
C787        H797   1.084       .  S
C788        C789   1.406       .  A
C789        H798   1.084       .  S
C790        C791   1.406       .  A
C790        H799   1.084       .  S
C791        C792   1.407       .  A
C792        H800   1.084       .  S
C801        C802   1.398       .  A
C801        C806   1.403       .  A
C801        H817   1.084       .  S
C802        C803   1.404       .  A
C802        H818   1.084       .  S
C803        C813   1.403       .  A
C803        C804   1.412       .  A
C804        C810   1.410       .  A
C804        C805   1.412       .  A
C805        C807   1.414       .  A
C805        C806   1.409       .  A
C806        C814   1.398       .  A
C807        C816   1.407       .  A
C807        C808   1.403       .  A
C808        C809   1.400       .  A
C808        H819   1.083       .  S
C809        C810   1.404       .  A
C809        H820   1.083       .  S
C810        C811   1.403       .  A
C811        C812   1.408       .  A
C811        H821   1.084       .  S
C812        C813   1.410       .  A
C813        H822   1.084       .  S
C814        C815   1.407       .  A
C814        H823   1.085       .  S
C815        C816   1.405       .  A
C816        H824   1.084       .  S
C825        C826   1.398       .  A
C825        C830   1.403       .  A
C825        H841   1.084       .  S
C826        C827   1.403       .  A
C826        H842   1.084       .  S
C827        C837   1.403       .  A
C827        C828   1.410       .  A
C828        C834   1.412       .  A
C828        C829   1.417       .  A
C829        C831   1.413       .  A
C829        C830   1.410       .  A
C830        C838   1.401       .  A
C831        C840   1.414       .  A
C831        C832   1.405       .  A
C832        C833   1.405       .  A
C832        H843   1.083       .  S
C833        C834   1.406       .  A
C833        H844   1.083       .  S
C834        C835   1.413       .  A
C835        C836   1.412       .  A
C835        H845   1.084       .  S
C836        C837   1.411       .  A
C837        H846   1.084       .  S
C838        C839   1.409       .  A
C838        H847   1.085       .  S
C839        C840   1.409       .  A
C840        H848   1.084       .  S
C849        C850   1.399       .  A
C849        C854   1.403       .  A
C849        H865   1.083       .  S
C850        C851   1.403       .  A
C850        H866   1.083       .  S
C851        C861   1.404       .  A
C851        C852   1.413   1_545  A
C852        C858   1.410       .  A
C852        C853   1.411       .  A
C853        C855   1.412       .  A
C853        C854   1.412   1_565  A
C854        C862   1.404       .  A
C855        C864   1.401       .  A
C855        C856   1.403       .  A
C856        C857   1.398       .  A
C856        H867   1.084       .  S
C857        C858   1.404       .  A
C857        H868   1.084       .  S
C858        C859   1.401       .  A
C859        C860   1.408       .  A
C859        H869   1.084       .  S
C860        C861   1.405   1_565  A
C861        H870   1.084       .  S
C862        C863   1.402   1_545  A
C862        H871   1.084       .  S
C863        C864   1.403       .  A
C864        H872   1.085       .  S
C873        C874   1.395       .  A
C873        C878   1.402       .  A
C873        H889   1.084       .  S
C874        C875   1.402       .  A
C874        H890   1.084       .  S
C875        C885   1.397       .  A
C875        C876   1.411       .  A
C876        C882   1.413       .  A
C876        C877   1.413       .  A
C877        C879   1.412       .  A
C877        C878   1.410       .  A
C878        C886   1.397       .  A
C879        C888   1.412       .  A
C879        C880   1.406       .  A
C880        C881   1.405       .  A
C880        H891   1.083       .  S
C881        C882   1.406       .  A
C881        H892   1.083       .  S
C882        C883   1.413       .  A
C883        C884   1.408       .  A
C883        H893   1.084       .  S
C884        C885   1.403       .  A
C885        H894   1.085       .  S
C886        C887   1.407       .  A
C886        H895   1.084       .  S
C887        C888   1.410       .  A
C888        H896   1.084       .  S
C897        C898   1.407       .  A
C897        C902   1.407       .  A
C897        H913   1.083       .  S
C898        C899   1.407       .  A
C898        H914   1.083       .  S
C899        C909   1.419       .  A
C899        C900   1.414       .  A
C900        C906   1.407       .  A
C900        C901   1.415       .  A
C901        C903   1.411       .  A
C901        C902   1.411       .  A
C902        C910   1.414       .  A
C903        C912   1.398       .  A
C903        C904   1.401       .  A
C904        C905   1.393       .  A
C904        H915   1.084       .  S
C905        C906   1.402       .  A
C905        H916   1.084       .  S
C906        C907   1.393       .  A
C907        C908   1.410       .  A
C907        H917   1.084       .  S
C908        C909   1.414       .  A
C909        H918   1.084       .  S
C910        C911   1.414       .  A
C910        H919   1.084       .  S
C911        C912   1.406       .  A
C912        H920   1.084       .  S
C921        C922   1.399       .  A
C921        C926   1.403       .  A
C921        H937   1.084       .  S
C922        C923   1.404       .  A
C922        H938   1.084       .  S
C923        C933   1.400       .  A
C923        C924   1.410       .  A
C924        C930   1.414       .  A
C924        C925   1.411       .  A
C925        C927   1.410       .  A
C925        C926   1.414       .  A
C926        C934   1.405       .  A
C927        C936   1.401   1_554  A
C927        C928   1.404   1_554  A
C928        C929   1.399   1_556  A
C928        H939   1.083       .  S
C929        C930   1.402       .  A
C929        H940   1.084   1_554  S
C930        C931   1.404       .  A
C931        C932   1.402       .  A
C931        H941   1.084       .  S
C932        C933   1.407       .  A
C933        H942   1.085       .  S
C934        C935   1.405       .  A
C934        H943   1.084       .  S
C935        C936   1.406   1_554  A
C936        H944   1.084       .  S
C945        C946   1.401       .  A
C945        C950   1.404       .  A
C945        H961   1.083       .  S
C946        C947   1.404       .  A
C946        H962   1.083       .  S
C947        C957   1.407       .  A
C947        C948   1.413       .  A
C948        C954   1.411       .  A
C948        C949   1.412       .  A
C949        C951   1.410       .  A
C949        C950   1.412       .  A
C950        C958   1.407       .  A
C951        C960   1.399       .  A
C951        C952   1.403       .  A
C952        C953   1.397       .  A
C952        H963   1.084       .  S
C953        C954   1.403       .  A
C953        H964   1.084       .  S
C954        C955   1.400       .  A
C955        C956   1.405       .  A
C955        H965   1.085       .  S
C956        C957   1.405       .  A
C957        H966   1.084       .  S
C958        C959   1.408       .  A
C958        H967   1.084       .  S
C959        C960   1.410       .  A
C960        H968   1.084       .  S
C969        C970   1.399       .  A
C969        C974   1.404   1_554  A
C969        H985   1.083       .  S
C970        C971   1.403   1_554  A
C970        H986   1.084       .  S
C971        C981   1.405       .  A
C971        C972   1.414       .  A
C972        C978   1.410       .  A
C972        C973   1.411       .  A
C973        C975   1.414       .  A
C973        C974   1.410       .  A
C974        C982   1.402   1_556  A
C975        C984   1.405       .  A
C975        C976   1.403       .  A
C976        C977   1.399       .  A
C976        H987   1.084       .  S
C977        C978   1.404       .  A
C977        H988   1.084       .  S
C978        C979   1.400       .  A
C979        C980   1.406       .  A
C979        H989   1.085       .  S
C980        C981   1.404       .  A
C981        H990   1.085       .  S
C982        C983   1.405   1_554  A
C982        H991   1.084       .  S
C983        C984   1.404       .  A
C984        H992   1.085       .  S
C993        C994   1.399       .  A
C993        C998   1.404       .  A
C993       H1009   1.084       .  S
C994        C995   1.404       .  A
C994       H1010   1.084       .  S
C995       C1005   1.404       .  A
C995        C996   1.412       .  A
C996       C1002   1.410       .  A
C996        C997   1.412       .  A
C997        C999   1.414       .  A
C997        C998   1.411       .  A
C998       C1006   1.401       .  A
C999       C1008   1.404       .  A
C999       C1000   1.403       .  A
C1000      C1001   1.399       .  A
C1000      H1011   1.083       .  S
C1001      C1002   1.403       .  A
C1001      H1012   1.083       .  S
C1002      C1003   1.402       .  A
C1003      C1004   1.408       .  A
C1003      H1013   1.084       .  S
C1004      C1005   1.409       .  A
C1005      H1014   1.084       .  S
C1006      C1007   1.406       .  A
C1006      H1015   1.085       .  S
C1007      C1008   1.402       .  A
C1008      H1016   1.084       .  S
C1017      C1018   1.398       .  A
C1017      C1022   1.404       .  A
C1017      H1033   1.083       .  S
C1018      C1019   1.402       .  A
C1018      H1034   1.084       .  S
C1019      C1029   1.405       .  A
C1019      C1020   1.414       .  A
C1020      C1026   1.408       .  A
C1020      C1021   1.413       .  A
C1021      C1023   1.413       .  A
C1021      C1022   1.408       .  A
C1022      C1030   1.401       .  A
C1023      C1032   1.407       .  A
C1023      C1024   1.403       .  A
C1024      C1025   1.400       .  A
C1024      H1035   1.084       .  S
C1025      C1026   1.405       .  A
C1025      H1036   1.084       .  S
C1026      C1027   1.403       .  A
C1027      C1028   1.414       .  A
C1027      H1037   1.084       .  S
C1028      C1029   1.405       .  A
C1029      H1038   1.084       .  S
C1030      C1031   1.411       .  A
C1030      H1039   1.084       .  S
C1031      C1032   1.408       .  A
C1032      H1040   1.084       .  S
C1041      C1042   1.400       .  A
C1041      C1046   1.404       .  A
C1041      H1057   1.084       .  S
C1042      C1043   1.404       .  A
C1042      H1058   1.083       .  S
C1043      C1053   1.407       .  A
C1043      C1044   1.411       .  A
C1044      C1050   1.412       .  A
C1044      C1045   1.418       .  A
C1045      C1047   1.411       .  A
C1045      C1046   1.411       .  A
C1046      C1054   1.406       .  A
C1047      C1056   1.410       .  A
C1047      C1048   1.405       .  A
C1048      C1049   1.403       .  A
C1048      H1059   1.083       .  S
C1049      C1050   1.405       .  A
C1049      H1060   1.084       .  S
C1050      C1051   1.410       .  A
C1051      C1052   1.412       .  A
C1051      H1061   1.084       .  S
C1052      C1053   1.411       .  A
C1053      H1062   1.084       .  S
C1054      C1055   1.411       .  A
C1054      H1063   1.084       .  S
C1055      C1056   1.412       .  A
C1056      H1064   1.084       .  S
C1065      C1066   1.398       .  A
C1065      C1070   1.403       .  A
C1065      H1081   1.084       .  S
C1066      C1067   1.404       .  A
C1066      H1082   1.084       .  S
C1067      C1077   1.402       .  A
C1067      C1068   1.410       .  A
C1068      C1074   1.412       .  A
C1068      C1069   1.415       .  A
C1069      C1071   1.413       .  A
C1069      C1070   1.411       .  A
C1070      C1078   1.402       .  A
C1071      C1080   1.410       .  A
C1071      C1072   1.404       .  A
C1072      C1073   1.402       .  A
C1072      H1083   1.083       .  S
C1073      C1074   1.405       .  A
C1073      H1084   1.083       .  S
C1074      C1075   1.410       .  A
C1075      C1076   1.410       .  A
C1075      H1085   1.084       .  S
C1076      C1077   1.411       .  A
C1077      H1086   1.084       .  S
C1078      C1079   1.405       .  A
C1078      H1087   1.085       .  S
C1079      C1080   1.406       .  A
C1080      H1088   1.084       .  S
C1089      C1090   1.399       .  A
C1089      C1094   1.404       .  A
C1089      H1105   1.084       .  S
C1090      C1091   1.404       .  A
C1090      H1106   1.084       .  S
C1091      C1101   1.405       .  A
C1091      C1092   1.410       .  A
C1092      C1098   1.413       .  A
C1092      C1093   1.420       .  A
C1093      C1095   1.412       .  A
C1093      C1094   1.411       .  A
C1094      C1102   1.405       .  A
C1095      C1104   1.415       .  A
C1095      C1096   1.406       .  A
C1096      C1097   1.406       .  A
C1096      H1107   1.083       .  S
C1097      C1098   1.407       .  A
C1097      H1108   1.083       .  S
C1098      C1099   1.418       .  A
C1099      C1100   1.412       .  A
C1099      H1109   1.084       .  S
C1100      C1101   1.409       .  A
C1101      H1110   1.085       .  S
C1102      C1103   1.412       .  A
C1102      H1111   1.084       .  S
C1103      C1104   1.413       .  A
C1104      H1112   1.084       .  S
C1113      C1114   1.406       .  A
C1113      C1118   1.406       .  A
C1113      H1129   1.083       .  S
C1114      C1115   1.407       .  A
C1114      H1130   1.083       .  S
C1115      C1125   1.417       .  A
C1115      C1116   1.412       .  A
C1116      C1122   1.410       .  A
C1116      C1117   1.419       .  A
C1117      C1119   1.409       .  A
C1117      C1118   1.413       .  A
C1118      C1126   1.417       .  A
C1119      C1128   1.401       .  A
C1119      C1120   1.404       .  A
C1120      C1121   1.398       .  A
C1120      H1131   1.084       .  S
C1121      C1122   1.403       .  A
C1121      H1132   1.084       .  S
C1122      C1123   1.403       .  A
C1123      C1124   1.411       .  A
C1123      H1133   1.084       .  S
C1124      C1125   1.413       .  A
C1125      H1134   1.084       .  S
C1126      C1127   1.412       .  A
C1126      H1135   1.084       .  S
C1127      C1128   1.413       .  A
C1128      H1136   1.084       .  S
C1137      C1138   1.404       .  A
C1137      C1142   1.405       .  A
C1137      H1153   1.084       .  S
C1138      C1139   1.406       .  A
C1138      H1154   1.083       .  S
C1139      C1149   1.413       .  A
C1139      C1140   1.413       .  A
C1140      C1146   1.410       .  A
C1140      C1141   1.416       .  A
C1141      C1143   1.411       .  A
C1141      C1142   1.411       .  A
C1142      C1150   1.410       .  A
C1143      C1152   1.402       .  A
C1143      C1144   1.403       .  A
C1144      C1145   1.397       .  A
C1144      H1155   1.084       .  S
C1145      C1146   1.403       .  A
C1145      H1156   1.084       .  S
C1146      C1147   1.401       .  A
C1147      C1148   1.407       .  A
C1147      H1157   1.085       .  S
C1148      C1149   1.409       .  A
C1149      H1158   1.084       .  S
C1150      C1151   1.412       .  A
C1150      H1159   1.084       .  S
C1151      C1152   1.409       .  A
C1152      H1160   1.084       .  S
C1161      C1162   1.401       .  A
C1161      C1166   1.405       .  A
C1161      H1177   1.084       .  S
C1162      C1163   1.404       .  A
C1162      H1178   1.083       .  S
C1163      C1173   1.408       .  A
C1163      C1164   1.414       .  A
C1164      C1170   1.410       .  A
C1164      C1165   1.412       .  A
C1165      C1167   1.412       .  A
C1165      C1166   1.411       .  A
C1166      C1174   1.405       .  A
C1167      C1176   1.401       .  A
C1167      C1168   1.403       .  A
C1168      C1169   1.397       .  A
C1168      H1179   1.084       .  S
C1169      C1170   1.402       .  A
C1169      H1180   1.084       .  S
C1170      C1171   1.398       .  A
C1171      C1172   1.404       .  A
C1171      H1181   1.085       .  S
C1172      C1173   1.405       .  A
C1173      H1182   1.084       .  S
C1174      C1175   1.409       .  A
C1174      H1183   1.084       .  S
C1175      C1176   1.408       .  A
C1176      H1184   1.084       .  S
C1185      C1186   1.398       .  A
C1185      C1190   1.403       .  A
C1185      H1201   1.084       .  S
C1186      C1187   1.403       .  A
C1186      H1202   1.084       .  S
C1187      C1197   1.402       .  A
C1187      C1188   1.411       .  A
C1188      C1194   1.412       .  A
C1188      C1189   1.413       .  A
C1189      C1191   1.413       .  A
C1189      C1190   1.412       .  A
C1190      C1198   1.402       .  A
C1191      C1200   1.407       .  A
C1191      C1192   1.404       .  A
C1192      C1193   1.402       .  A
C1192      H1203   1.083       .  S
C1193      C1194   1.405       .  A
C1193      H1204   1.083       .  S
C1194      C1195   1.408       .  A
C1195      C1196   1.408       .  A
C1195      H1205   1.084       .  S
C1196      C1197   1.406       .  A
C1197      H1206   1.084       .  S
C1198      C1199   1.404       .  A
C1198      H1207   1.085       .  S
C1199      C1200   1.405       .  A
C1200      H1208   1.084       .  S
C1209      C1210   1.401       .  A
C1209      C1214   1.405       .  A
C1209      H1225   1.083       .  S
C1210      C1211   1.404       .  A
C1210      H1226   1.084       .  S
C1211      C1221   1.408       .  A
C1211      C1212   1.413       .  A
C1212      C1218   1.409       .  A
C1212      C1213   1.413       .  A
C1213      C1215   1.412       .  A
C1213      C1214   1.410       .  A
C1214      C1222   1.405       .  A
C1215      C1224   1.402       .  A
C1215      C1216   1.402       .  A
C1216      C1217   1.397       .  A
C1216      H1227   1.084       .  S
C1217      C1218   1.404       .  A
C1217      H1228   1.084       .  S
C1218      C1219   1.399       .  A
C1219      C1220   1.411       .  A
C1219      H1229   1.084       .  S
C1220      C1221   1.408       .  A
C1221      H1230   1.084       .  S
C1222      C1223   1.412       .  A
C1222      H1231   1.084       .  S
C1223      C1224   1.406       .  A
C1224      H1232   1.084       .  S
C1233      C1234   1.402       .  A
C1233      C1238   1.405       .  A
C1233      H1249   1.084       .  S
C1234      C1235   1.405       .  A
C1234      H1250   1.084       .  S
C1235      C1245   1.409       .  A
C1235      C1236   1.411       .  A
C1236      C1242   1.411       .  A
C1236      C1237   1.415       .  A
C1237      C1239   1.411       .  A
C1237      C1238   1.411       .  A
C1238      C1246   1.408       .  A
C1239      C1248   1.403       .  A
C1239      C1240   1.403       .  A
C1240      C1241   1.398       .  A
C1240      H1251   1.084       .  S
C1241      C1242   1.403       .  A
C1241      H1252   1.084       .  S
C1242      C1243   1.403       .  A
C1243      C1244   1.408       .  A
C1243      H1253   1.084       .  S
C1244      C1245   1.412       .  A
C1245      H1254   1.084       .  S
C1246      C1247   1.411       .  A
C1246      H1255   1.084       .  S
C1247      C1248   1.409       .  A
C1248      H1256   1.084       .  S
C1257      C1258   1.403       .  A
C1257      C1262   1.405       .  A
C1257      H1273   1.083       .  S
C1258      C1259   1.405       .  A
C1258      H1274   1.083       .  S
C1259      C1269   1.409       .  A
C1259      C1260   1.412       .  A
C1260      C1266   1.411       .  A
C1260      C1261   1.412       .  A
C1261      C1263   1.409       .  A
C1261      C1262   1.412       .  A
C1262      C1270   1.411       .  A
C1263      C1272   1.396       .  A
C1263      C1264   1.402       .  A
C1264      C1265   1.394       .  A
C1264      H1275   1.084       .  S
C1265      C1266   1.401       .  A
C1265      H1276   1.084       .  S
C1266      C1267   1.397       .  A
C1267      C1268   1.404       .  A
C1267      H1277   1.085       .  S
C1268      C1269   1.408       .  A
C1269      H1278   1.084       .  S
C1270      C1271   1.411       .  A
C1270      H1279   1.084       .  S
C1271      C1272   1.408       .  A
C1272      H1280   1.084       .  S
C1281      C1282   1.396       .  A
C1281      C1286   1.402       .  A
C1281      H1297   1.084       .  S
C1282      C1283   1.403       .  A
C1282      H1298   1.084       .  S
C1283      C1293   1.400       .  A
C1283      C1284   1.409       .  A
C1284      C1290   1.413       .  A
C1284      C1285   1.419       .  A
C1285      C1287   1.412       .  A
C1285      C1286   1.410       .  A
C1286      C1294   1.400       .  A
C1287      C1296   1.418       .  A
C1287      C1288   1.407       .  A
C1288      C1289   1.408       .  A
C1288      H1299   1.083       .  S
C1289      C1290   1.407       .  A
C1289      H1300   1.083       .  S
C1290      C1291   1.420       .  A
C1291      C1292   1.414       .  A
C1291      H1301   1.083       .  S
C1292      C1293   1.413       .  A
C1293      H1302   1.084       .  S
C1294      C1295   1.409       .  A
C1294      H1303   1.084       .  S
C1295      C1296   1.415       .  A
C1296      H1304   1.084       .  S
C1305      C1306   1.406       .  A
C1305      C1310   1.407       .  A
C1305      H1321   1.083       .  S
C1306      C1307   1.406       .  A
C1306      H1322   1.083       .  S
C1307      C1317   1.416       .  A
C1307      C1308   1.413       .  A
C1308      C1314   1.410       .  A
C1308      C1309   1.417       .  A
C1309      C1311   1.410       .  A
C1309      C1310   1.412       .  A
C1310      C1318   1.415       .  A
C1311      C1320   1.400       .  A
C1311      C1312   1.403       .  A
C1312      C1313   1.396       .  A
C1312      H1323   1.084       .  S
C1313      C1314   1.403       .  A
C1313      H1324   1.084       .  S
C1314      C1315   1.399       .  A
C1315      C1316   1.409       .  A
C1315      H1325   1.085       .  S
C1316      C1317   1.410       .  A
C1317      H1326   1.084       .  S
C1318      C1319   1.413       .  A
C1318      H1327   1.084       .  S
C1319      C1320   1.410       .  A
C1320      H1328   1.084       .  S
C1329      C1330   1.403       .  A
C1329      C1334   1.405       .  A
C1329      H1345   1.083       .  S
C1330      C1331   1.405       .  A
C1330      H1346   1.083       .  S
C1331      C1341   1.410       .  A
C1331      C1332   1.412       .  A
C1332      C1338   1.409       .  A
C1332      C1333   1.412       .  A
C1333      C1335   1.410       .  A
C1333      C1334   1.411       .  A
C1334      C1342   1.409       .  A
C1335      C1344   1.396       .  A
C1335      C1336   1.402       .  A
C1336      C1337   1.394       .  A
C1336      H1347   1.084       .  S
C1337      C1338   1.402       .  A
C1337      H1348   1.084       .  S
C1338      C1339   1.396       .  A
C1339      C1340   1.408       .  A
C1339      H1349   1.084       .  S
C1340      C1341   1.410       .  A
C1341      H1350   1.084       .  S
C1342      C1343   1.410       .  A
C1342      H1351   1.084       .  S
C1343      C1344   1.407       .  A
C1344      H1352   1.084       .  S
C1353      C1354   1.401       .  A
C1353      C1358   1.404       .  A
C1353      H1369   1.084       .  S
C1354      C1355   1.405       .  A
C1354      H1370   1.084       .  S
C1355      C1365   1.404       .  A
C1355      C1356   1.409       .  A
C1356      C1362   1.415       .  A
C1356      C1357   1.413       .  A
C1357      C1359   1.409       .  A
C1357      C1358   1.415       .  A
C1358      C1366   1.409       .  A
C1359      C1368   1.399       .  A
C1359      C1360   1.404       .  A
C1360      C1361   1.398       .  A
C1360      H1371   1.084       .  S
C1361      C1362   1.402       .  A
C1361      H1372   1.084       .  S
C1362      C1363   1.406       .  A
C1363      C1364   1.403       .  A
C1363      H1373   1.084       .  S
C1364      C1365   1.408       .  A
C1365      H1374   1.085       .  S
C1366      C1367   1.406       .  A
C1366      H1375   1.084       .  S
C1367      C1368   1.407       .  A
C1368      H1376   1.085       .  S
C1377      C1378   1.406       .  A
C1377      C1382   1.406       .  A
C1377      H1393   1.083       .  S
C1378      C1379   1.406       .  A
C1378      H1394   1.083       .  S
C1379      C1389   1.413       .  A
C1379      C1380   1.411       .  A
C1380      C1386   1.411       .  A
C1380      C1381   1.417       .  A
C1381      C1383   1.408       .  A
C1381      C1382   1.414       .  A
C1382      C1390   1.418       .  A
C1383      C1392   1.398       .  A
C1383      C1384   1.403       .  A
C1384      C1385   1.396       .  A
C1384      H1395   1.084       .  S
C1385      C1386   1.402       .  A
C1385      H1396   1.084       .  S
C1386      C1387   1.401       .  A
C1387      C1388   1.409       .  A
C1387      H1397   1.084       .  S
C1388      C1389   1.413       .  A
C1389      H1398   1.084       .  S
C1390      C1391   1.412       .  A
C1390      H1399   1.084       .  S
C1391      C1392   1.411       .  A
C1392      H1400   1.084       .  S
C1401      C1402   1.407       .  A
C1401      C1406   1.407       .  A
C1401      H1417   1.083       .  S
C1402      C1403   1.407       .  A
C1402      H1418   1.083       .  S
C1403      C1413   1.417       .  A
C1403      C1404   1.413       .  A
C1404      C1410   1.409       .  A
C1404      C1405   1.415       .  A
C1405      C1407   1.410       .  A
C1405      C1406   1.412       .  A
C1406      C1414   1.415       .  A
C1407      C1416   1.397       .  A
C1407      C1408   1.402       .  A
C1408      C1409   1.394       .  A
C1408      H1419   1.084       .  S
C1409      C1410   1.402       .  A
C1409      H1420   1.084       .  S
C1410      C1411   1.396       .  A
C1411      C1412   1.407       .  A
C1411      H1421   1.085       .  S
C1412      C1413   1.411       .  A
C1413      H1422   1.084       .  S
C1414      C1415   1.413       .  A
C1414      H1423   1.084       .  S
C1415      C1416   1.408       .  A
C1416      H1424   1.084       .  S
C1425      C1426   1.400       .  A
C1425      C1430   1.404       .  A
C1425      H1441   1.084       .  S
C1426      C1427   1.405       .  A
C1426      H1442   1.084       .  S
C1427      C1437   1.402       .  A
C1427      C1428   1.408   1_565  A
C1428      C1434   1.413   1_655  A
C1428      C1429   1.413   1_655  A
C1429      C1431   1.408       .  A
C1429      C1430   1.413   1_445  A
C1430      C1438   1.407       .  A
C1431      C1440   1.400       .  A
C1431      C1432   1.404       .  A
C1432      C1433   1.398       .  A
C1432      H1443   1.084       .  S
C1433      C1434   1.402       .  A
C1433      H1444   1.084       .  S
C1434      C1435   1.404       .  A
C1435      C1436   1.406   1_455  A
C1435      H1445   1.084       .  S
C1436      C1437   1.412   1_545  A
C1437      H1446   1.084       .  S
C1438      C1439   1.408   1_665  A
C1438      H1447   1.084       .  S
C1439      C1440   1.410       .  A
C1440      H1448   1.084       .  S
C1449      C1450   1.398   1_455  A
C1449      C1454   1.403   1_556  A
C1449      H1465   1.084       .  S
C1450      C1451   1.403       .  A
C1450      H1466   1.084       .  S
C1451      C1461   1.404       .  A
C1451      C1452   1.413   1_565  A
C1452      C1458   1.410       .  A
C1452      C1453   1.412   1_655  A
C1453      C1455   1.414   1_556  A
C1453      C1454   1.410   1_546  A
C1454      C1462   1.401       .  A
C1455      C1464   1.406       .  A
C1455      C1456   1.403   1_554  A
C1456      C1457   1.400   1_455  A
C1456      H1467   1.084   1_556  S
C1457      C1458   1.404       .  A
C1457      H1468   1.084       .  S
C1458      C1459   1.403       .  A
C1459      C1460   1.409       .  A
C1459      H1469   1.084       .  S
C1460      C1461   1.404   1_545  A
C1461      H1470   1.084       .  S
C1462      C1463   1.406   1_565  A
C1462      H1471   1.085       .  S
C1463      C1464   1.405       .  A
C1464      H1472   1.084       .  S
C1473      C1474   1.397       .  A
C1473      C1478   1.403       .  A
C1473      H1489   1.084       .  S
C1474      C1475   1.402       .  A
C1474      H1490   1.084       .  S
C1475      C1485   1.401       .  A
C1475      C1476   1.411       .  A
C1476      C1482   1.411       .  A
C1476      C1477   1.414       .  A
C1477      C1479   1.412       .  A
C1477      C1478   1.409       .  A
C1478      C1486   1.400       .  A
C1479      C1488   1.410       .  A
C1479      C1480   1.405       .  A
C1480      C1481   1.402       .  A
C1480      H1491   1.083       .  S
C1481      C1482   1.405       .  A
C1481      H1492   1.083       .  S
C1482      C1483   1.407       .  A
C1483      C1484   1.410       .  A
C1483      H1493   1.084       .  S
C1484      C1485   1.407       .  A
C1485      H1494   1.084       .  S
C1486      C1487   1.410       .  A
C1486      H1495   1.084       .  S
C1487      C1488   1.410       .  A
C1488      H1496   1.084       .  S
C1497      C1498   1.397       .  A
C1497      C1502   1.404       .  A
C1497      H1513   1.084       .  S
C1498      C1499   1.402       .  A
C1498      H1514   1.084       .  S
C1499      C1509   1.401       .  A
C1499      C1500   1.414       .  A
C1500      C1506   1.410       .  A
C1500      C1501   1.409       .  A
C1501      C1503   1.414       .  A
C1501      C1502   1.410       .  A
C1502      C1510   1.398       .  A
C1503      C1512   1.404       .  A
C1503      C1504   1.403       .  A
C1504      C1505   1.398       .  A
C1504      H1515   1.084       .  S
C1505      C1506   1.404       .  A
C1505      H1516   1.084       .  S
C1506      C1507   1.399       .  A
C1507      C1508   1.406       .  A
C1507      H1517   1.085       .  S
C1508      C1509   1.402       .  A
C1509      H1518   1.085       .  S
C1510      C1511   1.405       .  A
C1510      H1519   1.085       .  S
C1511      C1512   1.402       .  A
C1512      H1520   1.084       .  S
C1521      C1522   1.405       .  A
C1521      C1526   1.406       .  A
C1521      H1537   1.083       .  S
C1522      C1523   1.406       .  A
C1522      H1538   1.083       .  S
C1523      C1533   1.413       .  A
C1523      C1524   1.412       .  A
C1524      C1530   1.410       .  A
C1524      C1525   1.417       .  A
C1525      C1527   1.410       .  A
C1525      C1526   1.413       .  A
C1526      C1534   1.415       .  A
C1527      C1536   1.401       .  A
C1527      C1528   1.403       .  A
C1528      C1529   1.397       .  A
C1528      H1539   1.084       .  S
C1529      C1530   1.403       .  A
C1529      H1540   1.084       .  S
C1530      C1531   1.401       .  A
C1531      C1532   1.410       .  A
C1531      H1541   1.084       .  S
C1532      C1533   1.412       .  A
C1533      H1542   1.084       .  S
C1534      C1535   1.411       .  A
C1534      H1543   1.084       .  S
C1535      C1536   1.407       .  A
C1536      H1544   1.085       .  S
C1545      C1546   1.404       .  A
C1545      C1550   1.406       .  A
C1545      H1561   1.083       .  S
C1546      C1547   1.405       .  A
C1546      H1562   1.083       .  S
C1547      C1557   1.411       .  A
C1547      C1548   1.413       .  A
C1548      C1554   1.411       .  A
C1548      C1549   1.415       .  A
C1549      C1551   1.410       .  A
C1549      C1550   1.412       .  A
C1550      C1558   1.412       .  A
C1551      C1560   1.401       .  A
C1551      C1552   1.403       .  A
C1552      C1553   1.396       .  A
C1552      H1563   1.084       .  S
C1553      C1554   1.402       .  A
C1553      H1564   1.084       .  S
C1554      C1555   1.399       .  A
C1555      C1556   1.405       .  A
C1555      H1565   1.085       .  S
C1556      C1557   1.407       .  A
C1557      H1566   1.084       .  S
C1558      C1559   1.411       .  A
C1558      H1567   1.084       .  S
C1559      C1560   1.410       .  A
C1560      H1568   1.084       .  S
