geometry optimzed in LAMMPS
_audit_creation_date              2020-11-30 
_audit_creation_method            'lammps2cif' 
_symmetry_space_group_name_H-M    'P1' 
_symmetry_Int_Tables_number       1 
_symmetry_cell_setting            triclinic 
loop_ 
_symmetry_equiv_pos_as_xyz 
  x,y,z 
_cell_length_a                    40.81433323 
_cell_length_b                    40.973130899149176 
_cell_length_c                    30.478629020985377 
_cell_angle_alpha                 89.54120486772946 
_cell_angle_beta                  90.103157306495 
_cell_angle_gamma                 120.61627602889006 
loop_ 
_atom_site_label 
_atom_site_type_symbol 
_atom_site_fract_x 
_atom_site_fract_y 
_atom_site_fract_z 
_atom_site_charge 
O1          O  0.44019683  0.23970666  0.67108206    -0.82000
C2          C  0.40219814  0.18027670  0.49998948     0.97400
O3          O  0.37894994  0.17668948  0.52959886    -0.71100
O4          O  0.37882453  0.14915758  0.60673811    -0.74700
Al5        Al  0.38431924  0.19592144  0.58730402     1.49000
C6          C  0.39464769  0.14342885  0.63884163     0.92600
O7          O  0.48565104  0.19771053  0.59713166    -0.80900
O8          O  0.48694462  0.29446517  0.57186058    -0.74500
Al9        Al  0.46151754  0.21904728  0.63213195     1.90100
O10         O  0.50149501  0.23932469  0.54373874    -0.73600
O11         O  0.42527608  0.26263070  0.51951981    -0.73400
O12         O  0.43697897  0.20555793  0.50209731    -0.79100
O13         O  0.37960485  0.23764564  0.56772357    -0.77300
O14         O  0.43502788  0.22094871  0.58614362    -1.13400
O15         O  0.38161904  0.21107501  0.64528676    -0.72600
C16         C  0.40558885  0.23053015  0.67450603     0.98100
C17         C  0.50419676  0.21319698  0.56223677     0.94500
Al18       Al  0.46046461  0.24827090  0.53877911     1.55600
O19         O  0.42603740  0.16947651  0.65256082    -0.77200
C20         C  0.39431853  0.25765107  0.53390899     0.98700
C21         C  0.50692066  0.29766356  0.60521078     0.93600
O22         O  0.50324830  0.26883571  0.62486256    -0.82500
O23         O  0.29452799  0.21573254  0.83178674    -0.82000
C24         C  0.28716966  0.18243755  0.00734781     0.97400
O25         O  0.28672957  0.16764909  0.97083502    -0.71100
O26         O  0.28038448  0.15442755  0.88426993    -0.74700
Al27       Al  0.31411556  0.19616989  0.92090754     1.49000
C28         C  0.24662219  0.14142126  0.87170119     0.92600
O29         O  0.21805921  0.21469399  0.90989379    -0.80900
O30         O  0.29478055  0.29158235  0.92794586    -0.74500
Al31       Al  0.25851241  0.21467593  0.87471412     1.90100
O32         O  0.24323453  0.22875230  0.97545405    -0.73600
O33         O  0.34893123  0.28010264  0.96101369    -0.73400
O34         O  0.29465974  0.21674964  0.00889934    -0.79100
O35         O  0.35553128  0.23067641  0.95691078    -0.77300
O36         O  0.28884595  0.22098766  0.92000946    -1.13400
O37         O  0.34309865  0.22350087  0.87164484    -0.72600
C38         C  0.32913635  0.22400407  0.83480379     0.98100
C39         C  0.21550034  0.21973300  0.95062666     0.94500
Al40       Al  0.29483047  0.25170471  0.96435587     1.55600
O41         O  0.23048030  0.16028067  0.87789310    -0.77200
C42         C  0.36855635  0.26480491  0.96703629     0.98700
C43         C  0.29099591  0.29423734  0.88686745     0.93600
O44         O  0.28121942  0.26617073  0.86282731    -0.82500
O45         O  0.20658265  0.41848639  0.83449292    -0.82000
C46         C  0.21705340  0.39745982  0.65918736     0.97400
O47         O  0.21710645  0.38242017  0.69551261    -0.71100
O48         O  0.22268034  0.37346966  0.78136455    -0.74700
Al49       Al  0.18893501  0.38181412  0.74467210     1.49000
C50         C  0.25596656  0.39484089  0.79561139     0.92600
O51         O  0.28421158  0.49712734  0.76082989    -0.80900
O52         O  0.21307778  0.49925876  0.73815293    -0.74500
Al53       Al  0.24288800  0.45536044  0.79386071     1.90100
O54         O  0.26310140  0.48530874  0.69329287    -0.73600
O55         O  0.15689839  0.43397591  0.70520534    -0.73400
O56         O  0.20976620  0.42422163  0.65775869    -0.79100
O57         O  0.14834617  0.37678121  0.70768572    -0.77900
O58         O  0.21444040  0.43218814  0.74714398    -1.13400
O59         O  0.15893455  0.37761287  0.79332303    -0.72600
C60         C  0.17250789  0.39113110  0.83045334     0.98100
C61         C  0.28960553  0.50361716  0.71984101     0.94500
Al62       Al  0.21100769  0.45860259  0.70254261     1.55600
O63         O  0.27142916  0.43026733  0.79157142    -0.77200
C64         C  0.13681055  0.39911736  0.69718691     0.98700
C65         C  0.21349043  0.50404142  0.77931976     0.93600
O66         O  0.21867892  0.48299890  0.80488174    -0.82500
O67         O  0.06339110  0.28062164  0.17120025    -0.82000
C68         C  0.09918108  0.32217404  0.99311332     0.97400
O69         O  0.12253257  0.33121007  0.02443937    -0.71100
O70         O  0.12363067  0.36503390  0.09791673    -0.74700
Al71       Al  0.11882421  0.31691978  0.08434844     1.49000
C72         C  0.10663099  0.37236833  0.12715763     0.92600
O73         O  0.01629995  0.31198652  0.08553222    -0.80900
O74         O  0.01793594  0.21498535  0.08108030    -0.74500
Al75       Al  0.04098695  0.29560095  0.12665533     1.90100
O76         O  0.00080319  0.26500332  0.04023974    -0.73600
O77         O  0.07828235  0.24235065  0.02734784    -0.73400
O78         O  0.06502843  0.29539572  0.99672368    -0.79100
O79         O  0.12622275  0.27528780  0.07057319    -0.77300
O80         O  0.06807905  0.29017126  0.08389997    -1.13400
O81         O  0.12172486  0.30585761  0.14436329    -0.72600
C82         C  0.09777987  0.28934455  0.17502546     0.98100
C83         C  0.99788408  0.29268242  0.05259925     0.94500
Al84       Al  0.04272510  0.25726461  0.04063565     1.55600
O85         O  0.07481916  0.34683358  0.14069242    -0.77200
C86         C  0.11050029  0.25075498  0.04103831     0.98700
C87         C  0.99809531  0.21439992  0.11330712     0.93600
O88         O  0.99999298  0.24455249  0.12592219    -0.82500
O89         O  0.20342799  0.28069311  0.32639746    -0.82000
C90         C  0.21055346  0.31821703  0.49995710     0.97400
O91         O  0.20967188  0.33109259  0.46245307    -0.71100
O92         O  0.21626550  0.34187341  0.37634067    -0.74700
Al93       Al  0.18299151  0.30028455  0.41431104     1.49000
C94         C  0.25036593  0.35555713  0.36427155     0.92600
O95         O  0.28075823  0.28395502  0.40450906    -0.80900
O96         O  0.21008552  0.21048180  0.42995075    -0.74500
Al97       Al  0.23938981  0.28241454  0.36971773     1.90100
O98         O  0.25933140  0.27745995  0.47156181    -0.73600
O99         O  0.15327619  0.21860168  0.46186715    -0.73400
O100        O  0.20529319  0.28492511  0.50420022    -0.79100
O101        O  0.14257081  0.26522642  0.45195103    -0.77300
O102        O  0.21003070  0.27747911  0.41559099    -1.13400
O103        O  0.15440595  0.27099857  0.36631639    -0.72600
C104        C  0.16896715  0.27241788  0.32928186     0.98100
C105        C  0.28581656  0.28412554  0.44571859     0.94500
Al106      Al  0.20728799  0.25008603  0.46267731     1.55600
O107        O  0.26685081  0.33683766  0.36994776    -0.77200
C108        C  0.13211260  0.23240695  0.46629975     0.98700
C109        C  0.21090938  0.20478812  0.38910530     0.93600
O110        O  0.21607216  0.23007406  0.36182942    -0.82500
O111        O  0.29610470  0.08114043  0.16694670    -0.82000
C112        C  0.33132590  0.10389434  0.34113517     0.97400
O113        O  0.34557941  0.11880874  0.30443098    -0.71100
O114        O  0.35774291  0.12553780  0.21910756    -0.74700
Al115      Al  0.31689400  0.11880681  0.25623271     1.49000
C116        C  0.36921462  0.10376023  0.20665698     0.92600
O117        O  0.29217932  0.00211042  0.24309675    -0.80900
O118        O  0.21994363  0.00324749  0.26660481    -0.74500
Al119      Al  0.29454339  0.04442392  0.20947354     1.90100
O120        O  0.28416323  0.01456762  0.31046306    -0.73600
O121        O  0.23331892  0.06910589  0.30045311    -0.73400
O122        O  0.29677226  0.07728583  0.34413404    -0.79100
O123        O  0.28337444  0.12580671  0.29439412    -0.77300
O124        O  0.29063733  0.06849257  0.25569058    -1.13400
O125        O  0.28990143  0.12207244  0.20724056    -0.72600
C126        C  0.28950875  0.10831065  0.17005121     0.98100
C127        C  0.29051051  0.99520749  0.28405096     0.94500
Al128      Al  0.26096363  0.04309801  0.30136789     1.55600
O129        O  0.34846704  0.06845358  0.21145712    -0.77200
C130        C  0.24960427  0.10421232  0.30724408     0.98700
C131        C  0.21582473  0.99872890  0.22539885     0.93600
O132        O  0.24298860  0.01859071  0.20002815    -0.82500
C133        C  0.22671592  0.15352101  0.39651528    -0.12500
C134        C  0.21001610  0.17030145  0.37183029     0.04500
C135        C  0.20106730  0.15959056  0.32721050    -0.07800
C136        C  0.21118569  0.13503788  0.30782900    -0.08500
C137        C  0.23036942  0.12080357  0.33158570    -0.03100
C138        C  0.23732525  0.12932192  0.37668654     0.03800
N139        N  0.25802388  0.11625427  0.40186041     0.66300
H140        H  0.23453384  0.16167188  0.43038029     0.15200
H141        H  0.20631548  0.12912589  0.27305125     0.14900
N142        N  0.18568463  0.17664473  0.29944361     0.74000
O143        O  0.28910585  0.13998340  0.41946437    -0.39500
O144        O  0.24241911  0.08166116  0.41241323    -0.39400
O145        O  0.20256447  0.19220323  0.26403744    -0.40100
O146        O  0.15320413  0.17198803  0.30722144    -0.40200
C147        C  0.28193221  0.42557343  0.36718349    -0.12500
C148        C  0.26946709  0.39305613  0.34191670     0.04500
C149        C  0.26778162  0.39604066  0.29583061    -0.07800
C150        C  0.27670366  0.43087760  0.27612797    -0.08500
C151        C  0.28732262  0.46315624  0.30165739    -0.03100
C152        C  0.29132581  0.46043098  0.34767479     0.03800
N153        N  0.30300630  0.49241028  0.37553534     0.66300
H154        H  0.28275847  0.42353884  0.40261443     0.15200
H155        H  0.27290393  0.43197731  0.24106113     0.14900
N156        N  0.25430487  0.36324816  0.26895022     0.74000
O157        O  0.27967381  0.49272216  0.40240544    -0.39500
O158        O  0.35078928  0.01593354  0.37398554    -0.39400
O159        O  0.22454480  0.35197201  0.24637061    -0.40100
O160        O  0.27494400  0.34893617  0.26300343    -0.40200
C161        C  0.12423723  0.40863754  0.19674179    -0.12500
C162        C  0.12602107  0.40929067  0.15057782     0.04500
C163        C  0.15093491  0.44385553  0.12950897    -0.07800
C164        C  0.17578017  0.47541421  0.15444529    -0.08500
C165        C  0.17793503  0.47307473  0.20034877    -0.03100
C166        C  0.15059529  0.43967374  0.22182880     0.03800
N167        N  0.15198675  0.43510463  0.26820640     0.66300
H168        H  0.10453663  0.38268291  0.21334803     0.15200
H169        H  0.19540680  0.50149944  0.13735460     0.14900
N170        N  0.15117141  0.44769886  0.08296652     0.74000
O171        O  0.12645121  0.43408787  0.29243961    -0.39500
O172        O  0.17506758  0.42626329  0.28399679    -0.39400
O173        O  0.12082197  0.44068317  0.06390305    -0.40100
O174        O  0.18254934  0.46644786  0.06296584    -0.40200
C175        C  0.43777216  0.14860404  0.20723417    -0.12500
C176        C  0.40640790  0.12089583  0.18448292     0.04500
C177        C  0.40916052  0.11788028  0.13864151    -0.07800
C178        C  0.44196126  0.14512296  0.11592554    -0.08500
C179        C  0.47181729  0.17535599  0.13854780    -0.03100
C180        C  0.47020954  0.17562332  0.18486649     0.03800
N181        N  0.99690443  0.21049546  0.20811042     0.66300
H182        H  0.43580441  0.15135806  0.24232742     0.15200
H183        H  0.44243096  0.14468899  0.08039357     0.14900
N184        N  0.37717910  0.09035067  0.11424236     0.74000
O185        O  0.98948853  0.23460026  0.22325028    -0.39500
O186        O  0.02462113  0.20855059  0.22334389    -0.39400
O187        O  0.37220989  0.05759747  0.10922658    -0.40100
O188        O  0.35736145  0.10032615  0.09247523    -0.40200
C189        C  0.11790006  0.27867080  0.29412973    -0.12500
C190        C  0.14668335  0.26961968  0.28951870     0.04500
C191        C  0.15511597  0.26228712  0.24694001    -0.07800
C192        C  0.13726431  0.26747849  0.21059886    -0.08500
C193        C  0.11109175  0.27966408  0.21525401    -0.03100
C194        C  0.10022588  0.28388092  0.25768875     0.03800
N195        N  0.07420796  0.29692034  0.26474883     0.66300
H196        H  0.11061581  0.28431581  0.32624751     0.15200
H197        H  0.14467837  0.26275647  0.17806272     0.14900
N198        N  0.18035797  0.24835336  0.23922751     0.74000
O199        O  0.04388010  0.27593308  0.28574331    -0.39500
O200        O  0.08692093  0.33210409  0.26386557    -0.39400
O201        O  0.16930391  0.22023419  0.21423473    -0.40100
O202        O  0.21562193  0.26992188  0.24506683    -0.40200
C203        C  0.09974374  0.32096412  0.91179444    -0.12500
C204        C  0.11321710  0.34172345  0.95066052     0.04500
C205        C  0.14308187  0.37968455  0.94842490    -0.07800
C206        C  0.16061575  0.39552590  0.90854342    -0.08500
C207        C  0.14930507  0.37414385  0.87018037    -0.03100
C208        C  0.11765841  0.33669647  0.87159794     0.03800
N209        N  0.10515456  0.31328753  0.83351521     0.66300
H210        H  0.07686550  0.29161389  0.91297679     0.15200
H211        H  0.18394262  0.42466847  0.90794531     0.14900
N212        N  0.15478752  0.40340455  0.98592237     0.74000
O213        O  0.12398473  0.29869506  0.81992394    -0.39500
O214        O  0.07225521  0.30183036  0.81849171    -0.39400
O215        O  0.18276418  0.40740246  0.00802425    -0.40100
O216        O  0.14570188  0.42850143  0.98780677    -0.40200
C217        C  0.21306839  0.39203860  0.57768950    -0.12500
C218        C  0.22193213  0.38125352  0.61779877     0.04500
C219        C  0.23028510  0.35163123  0.61789549    -0.07800
C220        C  0.22690725  0.33200891  0.57910128    -0.08500
C221        C  0.21612728  0.34152898  0.53949858    -0.03100
C222        C  0.20979932  0.37246561  0.53890906     0.03800
N223        N  0.19730182  0.38276503  0.50007938     0.66300
H224        H  0.20634511  0.41443439  0.57668809     0.15200
H225        H  0.23266998  0.30896896  0.58009081     0.14900
N226        N  0.24204711  0.34086527  0.65701410     0.74000
O227        O  0.16370505  0.36166728  0.48656983    -0.39500
O228        O  0.21750405  0.41544235  0.48354907    -0.39400
O229        O  0.22464250  0.30669885  0.66970596    -0.40100
O230        O  0.27244695  0.36454819  0.67591840    -0.40200
C231        C  0.27893833  0.10709837  0.08899876    -0.12500
C232        C  0.28344538  0.12524612  0.12936277     0.04500
C233        C  0.28459613  0.16040688  0.12929084    -0.07800
C234        C  0.28369393  0.17744678  0.08947964    -0.08500
C235        C  0.28175424  0.16046337  0.04891084    -0.03100
C236        C  0.27796819  0.12407737  0.04922505     0.03800
N237        N  0.27431690  0.10426406  0.00944862     0.66300
H238        H  0.27710629  0.07978369  0.08800821     0.15200
H239        H  0.28580657  0.20487937  0.09045243     0.14900
N240        N  0.28857179  0.18028011  0.16909712     0.74000
O241        O  0.30329601  0.10590754  0.99245069    -0.39500
O242        O  0.24165108  0.08087978  0.99502695    -0.39400
O243        O  0.32102207  0.20654793  0.18080097    -0.40100
O244        O  0.25930182  0.17529320  0.18909230    -0.40200
C245        C  0.17871122  0.21555061  0.01770306    -0.12500
C246        C  0.18173940  0.21858006  0.97143982     0.04500
C247        C  0.15705718  0.22732517  0.94847036    -0.07800
C248        C  0.13166916  0.23448266  0.97200974    -0.08500
C249        C  0.13132360  0.23464545  0.01832638    -0.03100
C250        C  0.15439726  0.22399344  0.04106033     0.03800
N251        N  0.15392533  0.22222970  0.08792683     0.66300
H252        H  0.19685538  0.20835633  0.03630569     0.15200
H253        H  0.11442076  0.24317446  0.95397078     0.14900
N254        N  0.16004170  0.23298440  0.90193063     0.74000
O255        O  0.12561089  0.19566470  0.10764704    -0.39500
O256        O  0.18345394  0.24437252  0.10928309    -0.39400
O257        O  0.13182417  0.21233598  0.87792055    -0.40100
O258        O  0.18814566  0.26237975  0.88578315    -0.40200
C259        C  0.43691918  0.28797290  0.96448100    -0.12500
C260        C  0.40622529  0.28510992  0.98790273     0.04500
C261        C  0.40986243  0.29193414  0.03351250    -0.07800
C262        C  0.44284633  0.29798486  0.05546067    -0.08500
C263        C  0.47216649  0.29735144  0.03233483    -0.03100
C264        C  0.46982051  0.29435914  0.98607787     0.03800
N265        N  0.49964097  0.29509653  0.96080306     0.66300
H266        H  0.43427969  0.28257783  0.92952873     0.15200
H267        H  0.44396186  0.29968417  0.09094638     0.14900
N268        N  0.37855557  0.28813354  0.05860499     0.74000
O269        O  0.49378376  0.26554433  0.94127711    -0.39500
O270        O  0.02753046  0.32890508  0.94693977    -0.39400
O271        O  0.36154820  0.26084316  0.08531465    -0.40100
O272        O  0.37175854  0.31491479  0.05903455    -0.40200
C273        C  0.21058238  0.07084773  0.86928844    -0.12500
C274        C  0.22812519  0.10551118  0.84662599     0.04500
C275        C  0.23506152  0.10573386  0.80110835    -0.07800
C276        C  0.22608509  0.07184829  0.77975531    -0.08500
C277        C  0.21045126  0.03735813  0.80286003    -0.03100
C278        C  0.20128189  0.03690419  0.84788654     0.03800
N279        N  0.18406875  0.00241139  0.87290821     0.66300
H280        H  0.20557991  0.07032976  0.90426687     0.15200
H281        H  0.23377787  0.07304122  0.74551907     0.14900
N282        N  0.25380052  0.14057530  0.77673341     0.74000
O283        O  0.20158182  0.99883104  0.90502699    -0.39500
O284        O  0.15086581  0.47665890  0.86027783    -0.39400
O285        O  0.28288369  0.14875136  0.75405052    -0.40100
O286        O  0.23798691  0.16002977  0.77231665    -0.40200
C287        C  0.28802891  0.35710296  0.79694394    -0.12500
C288        C  0.27502765  0.37765644  0.81994474     0.04500
C289        C  0.27413605  0.37582975  0.86631703    -0.07800
C290        C  0.28320360  0.35115958  0.88856492    -0.08500
C291        C  0.29387275  0.32855362  0.86533211    -0.03100
C292        C  0.29838511  0.33351888  0.81902318     0.03800
N293        N  0.31165158  0.31327489  0.79359352     0.66300
H294        H  0.28905938  0.35846781  0.76143517     0.15200
H295        H  0.27928448  0.34777430  0.92380473     0.14900
N296        N  0.26098590  0.39645721  0.89102975     0.74000
O297        O  0.29170704  0.29240971  0.76249170    -0.39500
O298        O  0.34492640  0.31931902  0.79923864    -0.39400
O299        O  0.23092021  0.37882388  0.91358152    -0.40100
O300        O  0.28214572  0.43183690  0.89536321    -0.40200
C301        C  0.34390987  0.07019149  0.72873566    -0.12500
C302        C  0.32351417  0.03710379  0.70398766     0.04500
C303        C  0.33197921  0.03841240  0.65863751    -0.07800
C304        C  0.35684323  0.07314986  0.63826561    -0.08500
C305        C  0.37483861  0.10665092  0.66237308    -0.03100
C306        C  0.36954245  0.10483999  0.70836286     0.03800
N307        N  0.38595186  0.13860930  0.73390017     0.66300
H308        H  0.33746778  0.06996198  0.76325930     0.15200
H309        H  0.36140220  0.07411432  0.60318342     0.14900
N310        N  0.31512958  0.50284831  0.62985604     0.74000
O311        O  0.36538451  0.15168689  0.74605216    -0.39500
O312        O  0.41822015  0.15082521  0.75114971    -0.39400
O313        O  0.29476105  0.50106286  0.59769420    -0.40100
O314        O  0.32136695  0.47610540  0.63694524    -0.40200
C315        C  0.03431723  0.34058319  0.66464406    -0.12500
C316        C  0.03851336  0.33254780  0.62097562     0.04500
C317        C  0.07441796  0.35310175  0.60057437    -0.07800
C318        C  0.10596956  0.37902986  0.62523443    -0.08500
C319        C  0.10230866  0.38429109  0.67007364    -0.03100
C320        C  0.06590066  0.36648789  0.68929076     0.03800
N321        N  0.06109629  0.37243841  0.73447355     0.66300
H322        H  0.00677758  0.32455066  0.68058975     0.15200
H323        H  0.13407143  0.39206977  0.61051915     0.14900
N324        N  0.08025689  0.34432388  0.55695527     0.74000
O325        O  0.07233466  0.40554976  0.74790599    -0.39500
O326        O  0.04201192  0.34448841  0.75978830    -0.39400
O327        O  0.59512548  0.37552366  0.53111930    -0.40100
O328        O  0.07787810  0.31295061  0.54932447    -0.40200
C329        C  0.40803935  0.23914055  0.75516294    -0.12500
C330        C  0.39152077  0.23929232  0.71490463     0.04500
C331        C  0.35736326  0.24014370  0.71482631    -0.07800
C332        C  0.33841670  0.23669755  0.75435023    -0.08500
C333        C  0.35284486  0.23255816  0.79453107    -0.03100
C334        C  0.38890789  0.23514150  0.79478525     0.03800
N335        N  0.40513370  0.23035589  0.83421908     0.66300
H336        H  0.43416109  0.23830793  0.75580356     0.15200
H337        H  0.31163258  0.23619080  0.75332135     0.14900
N338        N  0.34131659  0.24399328  0.67472276     0.74000
O339        O  0.39213723  0.19750558  0.85020093    -0.39500
O340        O  0.43702079  0.25688600  0.84704887    -0.39400
O341        O  0.30762035  0.21955717  0.66444769    -0.40100
O342        O  0.35941086  0.27382110  0.65189931    -0.40200
C343        C  0.06259029  0.20310345  0.46875610    -0.12500
C344        C  0.09606843  0.21239447  0.49104149     0.04500
C345        C  0.09606840  0.21250167  0.53743956    -0.07800
C346        C  0.06377130  0.20711618  0.56043366    -0.08500
C347        C  0.03136902  0.20123826  0.53768887    -0.03100
C348        C  0.03018752  0.19688932  0.49158412     0.03800
N349        N  0.49765142  0.19212727  0.47048040     0.66300
H350        H  0.06237652  0.20308707  0.43318078     0.15200
H351        H  0.06540174  0.21116553  0.59563736     0.14900
N352        N  0.13008862  0.22268254  0.56128648     0.74000
O353        O  0.50114338  0.21466155  0.43990785    -0.39500
O354        O  0.46763870  0.16009707  0.47327373    -0.39400
O355        O  0.13986468  0.19834798  0.56754841    -0.40100
O356        O  0.14665824  0.25349373  0.58201882    -0.40200
C357        C  0.35373182  0.28662387  0.53239925    -0.12500
C358        C  0.37359513  0.27288671  0.50916884     0.04500
C359        C  0.36876285  0.26872243  0.46307286    -0.07800
C360        C  0.34261678  0.27622782  0.44182043    -0.08500
C361        C  0.32096778  0.28783561  0.46560060    -0.03100
C362        C  0.32804627  0.29452392  0.51129697     0.03800
N363        N  0.30744313  0.30687612  0.53756263     0.66300
H364        H  0.35718706  0.29005333  0.56759485     0.15200
H365        H  0.33716900  0.27009505  0.40716863     0.14900
N366        N  0.38662629  0.25258372  0.43817347     0.74000
O367        O  0.28401329  0.28477485  0.56598853    -0.39500
O368        O  0.31616783  0.34116305  0.53630531    -0.39400
O369        O  0.36641892  0.22063637  0.42054204    -0.40100
O370        O  0.42116057  0.27287394  0.42726900    -0.40200
C371        C  0.40607356  0.17186164  0.42052641    -0.12500
C372        C  0.38791157  0.15643327  0.46067522     0.04500
C373        C  0.35424307  0.12062499  0.46138513    -0.07800
C374        C  0.33794786  0.10238078  0.42196748    -0.08500
C375        C  0.35404658  0.11969858  0.38146165    -0.03100
C376        C  0.38949800  0.15414105  0.38106512     0.03800
N377        N  0.40764356  0.17333118  0.34112123     0.66300
H378        H  0.43177832  0.19948558  0.41934648     0.15200
H379        H  0.31130211  0.07555753  0.42319749     0.14900
N380        N  0.33542235  0.10306533  0.50166923     0.74000
O381        O  0.40011031  0.19717349  0.32482851    -0.39500
O382        O  0.43644582  0.17254394  0.32766951    -0.39400
O383        O  0.30649664  0.10445758  0.51327816    -0.40100
O384        O  0.34311568  0.08043138  0.52093503    -0.40200
O385        O  0.44242765  0.73767550  0.66802551    -0.82000
C386        C  0.40412793  0.68032115  0.49556643     0.97400
O387        O  0.38107766  0.67482943  0.52621238    -0.71100
O388        O  0.38191364  0.64661663  0.60241239    -0.74700
Al389      Al  0.38641066  0.69324263  0.58430705     1.49000
C390        C  0.39715739  0.64117384  0.63527068     0.92600
O391        O  0.48734577  0.69579669  0.59287400    -0.80900
O392        O  0.48952325  0.79321358  0.57068946    -0.74500
Al393      Al  0.46366218  0.71700235  0.62878180     1.90100
O394        O  0.50260953  0.73764081  0.53956562    -0.73600
O395        O  0.42758857  0.76362683  0.51981984    -0.73400
O396        O  0.43848777  0.70663097  0.49745160    -0.79100
O397        O  0.38077858  0.73441829  0.56614458    -0.77300
O398        O  0.43708462  0.71927243  0.58305721    -1.13400
O399        O  0.38358347  0.70762087  0.64277366    -0.72600
C400        C  0.40760395  0.72779987  0.67165799     0.98100
C401        C  0.50532714  0.71130917  0.55761566     0.94500
Al402      Al  0.46237265  0.74789735  0.53628794     1.55600
O403        O  0.42813578  0.66749931  0.64947358    -0.77200
C404        C  0.39620535  0.75719342  0.53459801     0.98700
C405        C  0.50974385  0.79573030  0.60342496     0.93600
O406        O  0.50588769  0.76650044  0.62205975    -0.82500
O407        O  0.29594657  0.71603572  0.82669634    -0.82000
C408        C  0.28722318  0.68281300  0.00256470     0.97400
O409        O  0.28693467  0.66788031  0.96623049    -0.71100
O410        O  0.28138490  0.65446938  0.87976015    -0.74700
Al411      Al  0.31465060  0.69643872  0.91642531     1.49000
C412        C  0.24779617  0.64135684  0.86645135     0.92600
O413        O  0.21817211  0.71407919  0.90371921    -0.80900
O414        O  0.29297561  0.79051229  0.92293805    -0.74500
Al415      Al  0.25926877  0.71461408  0.86895593     1.90100
O416        O  0.24258244  0.72699230  0.96975305    -0.73600
O417        O  0.34807658  0.78058467  0.95557955    -0.73400
O418        O  0.29481869  0.71712472  0.00379996    -0.79100
O419        O  0.35560137  0.73159333  0.95253723    -0.77300
O420        O  0.28906098  0.72088888  0.91474819    -1.13400
O421        O  0.34400613  0.72368447  0.86744658    -0.72600
C422        C  0.33049196  0.72418835  0.83034715     0.98100
C423        C  0.21505884  0.71808080  0.94465458     0.94500
Al424      Al  0.29413830  0.75128052  0.95904946     1.55600
O425        O  0.23149334  0.66017988  0.87177572    -0.77200
C426        C  0.36813075  0.76580887  0.96199644     0.98700
C427        C  0.29012070  0.79373770  0.88183174     0.93600
O428        O  0.28194593  0.76630813  0.85728020    -0.82500
O429        O  0.20482245  0.91845066  0.83583714    -0.82000
C430        C  0.21503201  0.90011702  0.66002865     0.97400
O431        O  0.21436822  0.88414854  0.69590543    -0.71100
O432        O  0.22031038  0.87413221  0.78112051    -0.74700
Al433      Al  0.18648439  0.88309121  0.74544793     1.49000
C434        C  0.25381069  0.89524674  0.79487820     0.92600
O435        O  0.28219802  0.99811477  0.76296815    -0.80900
O436        O  0.21115864  0.00062363  0.74135809    -0.74500
Al437      Al  0.24092154  0.95588477  0.79543361     1.90100
O438        O  0.26112803  0.98723008  0.69542852    -0.73600
O439        O  0.15486025  0.93606638  0.70719842    -0.73400
O440        O  0.20769172  0.92682501  0.65912268    -0.79100
O441        O  0.14588153  0.87869833  0.70914508    -0.77900
O442        O  0.21223997  0.93342245  0.74864069    -1.13400
O443        O  0.15670948  0.87838457  0.79470668    -0.72600
C444        C  0.17069661  0.89115599  0.83194097     0.98100
C445        C  0.28764009  0.00513117  0.72209663     0.94500
Al446      Al  0.20897639  0.96052718  0.70468327     1.55600
O447        O  0.26933466  0.93073065  0.79159482    -0.77200
C448        C  0.13452752  0.90124981  0.69906954     0.98700
C449        C  0.21166860  0.00485106  0.78264426     0.93600
O450        O  0.21682307  0.98342734  0.80762384    -0.82500
O451        O  0.06596741  0.77577010  0.17265734    -0.82000
C452        C  0.09988469  0.81928023  0.99502283     0.97400
O453        O  0.12358743  0.82764959  0.02589505    -0.71100
O454        O  0.12640252  0.86036523  0.10098867    -0.74700
Al455      Al  0.12044839  0.81216638  0.08543259     1.49000
C456        C  0.10958551  0.86777079  0.13035981     0.92600
O457        O  0.01796623  0.80828871  0.08924638    -0.80900
O458        O  0.01879141  0.71098603  0.08200843    -0.74500
Al459      Al  0.04320802  0.79138792  0.12923298     1.90100
O460        O  0.00172467  0.76161976  0.04334323    -0.73600
O461        O  0.07844294  0.73866938  0.02687369    -0.73400
O462        O  0.06566710  0.79259363  0.99882528    -0.79100
O463        O  0.12702310  0.77048848  0.06957680    -0.77300
O464        O  0.06961856  0.78604716  0.08562251    -1.13400
O465        O  0.12384456  0.79980464  0.14499191    -0.72600
C466        C  0.10013957  0.78363372  0.17596881     0.98100
C467        C  0.99899764  0.78919673  0.05642356     0.94500
Al468      Al  0.04349613  0.75377452  0.04212226     1.55600
O469        O  0.07748675  0.84249979  0.14351105    -0.77200
C470        C  0.11076442  0.74662506  0.03954615     0.98700
C471        C  0.99940892  0.71029025  0.11482700     0.93600
O472        O  0.00205246  0.74048068  0.12856221    -0.82500
O473        O  0.20514486  0.77953544  0.33050033    -0.82000
C474        C  0.21024085  0.82078830  0.50235356     0.97400
O475        O  0.20965217  0.83288359  0.46427483    -0.71100
O476        O  0.21797652  0.84149981  0.37792334    -0.74700
Al477      Al  0.18372327  0.80080394  0.41653649     1.49000
C478        C  0.25228588  0.85461399  0.36682476     0.92600
O479        O  0.28034574  0.78175115  0.41070909    -0.80900
O480        O  0.21172979  0.71235174  0.43826224    -0.74500
Al481      Al  0.23977283  0.78105159  0.37491899     1.90100
O482        O  0.26010152  0.78144136  0.47686126    -0.73600
O483        O  0.15411606  0.72037183  0.46791546    -0.73400
O484        O  0.20518700  0.78775855  0.50793815    -0.79100
O485        O  0.14287308  0.76627174  0.45409712    -0.77300
O486        O  0.21057091  0.77805201  0.42007744    -1.13400
O487        O  0.15574111  0.77024523  0.36912489    -0.72600
C488        C  0.17054036  0.77059636  0.33265295     0.98100
C489        C  0.28566949  0.78418580  0.45195861     0.94500
Al490      Al  0.20806075  0.75246393  0.46852638     1.55600
O491        O  0.26832005  0.83557430  0.37392991    -0.77200
C492        C  0.13254262  0.73393037  0.47009693     0.98700
C493        C  0.21082189  0.70463170  0.39778940     0.93600
O494        O  0.21433813  0.72818460  0.36889949    -0.82500
O495        O  0.29445470  0.58199066  0.16358008    -0.82000
C496        C  0.33165938  0.60571593  0.33626976     0.97400
O497        O  0.34585163  0.62015774  0.29931882    -0.71100
O498        O  0.35690984  0.62706055  0.21380335    -0.74700
Al499      Al  0.31720760  0.62122729  0.25175988     1.49000
C500        C  0.36844427  0.60516022  0.20256737     0.92600
O501        O  0.29164395  0.50455671  0.24155283    -0.80900
O502        O  0.21633917  0.50936687  0.26241849    -0.74500
Al503      Al  0.29348438  0.54582831  0.20666152     1.90100
O504        O  0.27726563  0.51452835  0.30719772    -0.73600
O505        O  0.23417409  0.57655978  0.29596731    -0.73400
O506        O  0.29658034  0.58009886  0.33994567    -0.79100
O507        O  0.28642312  0.63112011  0.29108259    -0.77300
O508        O  0.28948862  0.57084472  0.25193596    -1.13400
O509        O  0.28992826  0.62451737  0.20319071    -0.72600
C510        C  0.28871730  0.60982032  0.16627810     0.98100
C511        C  0.28638688  0.49633408  0.28218416     0.94500
Al512      Al  0.25865407  0.54708614  0.29736245     1.55600
O513        O  0.34762569  0.57000668  0.20832847    -0.77200
C514        C  0.25256855  0.61144391  0.30421701     0.98700
C515        C  0.21344105  0.50240282  0.22166310     0.93600
O516        O  0.24191645  0.51880129  0.19705520    -0.82500
C517        C  0.24216422  0.66705034  0.39694387    -0.12500
C518        C  0.21183466  0.67093508  0.38252890     0.04500
C519        C  0.19141109  0.65082849  0.34482279    -0.07800
C520        C  0.20384745  0.63006553  0.32025033    -0.08500
C521        C  0.23647999  0.62918885  0.33268988    -0.03100
C522        C  0.25479630  0.64688237  0.37228608     0.03800
N523        N  0.28727515  0.64581920  0.38744196     0.66300
H524        H  0.25853237  0.68274527  0.42531254     0.15200
H525        H  0.18884429  0.61577312  0.29063579     0.14900
N526        N  0.15850790  0.65201000  0.33085418     0.74000
O527        O  0.31995136  0.67271227  0.37712209    -0.39500
O528        O  0.28363237  0.62542602  0.42041143    -0.39400
O529        O  0.15424306  0.65732848  0.29093495    -0.40100
O530        O  0.13191961  0.64408897  0.35771490    -0.40200
C531        C  0.28890910  0.92509702  0.36775649    -0.12500
C532        C  0.27205518  0.89165273  0.34345306     0.04500
C533        C  0.26727482  0.89385619  0.29783057    -0.07800
C534        C  0.27715513  0.92873157  0.27776918    -0.08500
C535        C  0.29167333  0.96193159  0.30253830    -0.03100
C536        C  0.29916832  0.96007448  0.34779803     0.03800
N537        N  0.31530196  0.99318013  0.37457621     0.66300
H538        H  0.29241112  0.92382220  0.40287605     0.15200
H539        H  0.27081224  0.92921934  0.24330940     0.14900
N540        N  0.25027604  0.86044016  0.27180189     0.74000
O541        O  0.29508429  0.99675104  0.40323719    -0.39500
O542        O  0.33768870  0.51787632  0.37734525    -0.39400
O543        O  0.21784662  0.84878989  0.25524246    -0.40100
O544        O  0.27089968  0.84815583  0.25742123    -0.40200
C545        C  0.12859914  0.90346104  0.20039877    -0.12500
C546        C  0.12940592  0.90442047  0.15427113     0.04500
C547        C  0.15364363  0.93928548  0.13336635    -0.07800
C548        C  0.17805434  0.97091292  0.15836871    -0.08500
C549        C  0.18082842  0.96844666  0.20417304    -0.03100
C550        C  0.15451031  0.93451849  0.22555812     0.03800
N551        N  0.15645216  0.92981743  0.27179662     0.66300
H552        H  0.10956798  0.87676818  0.21741007     0.15200
H553        H  0.19690339  0.99731095  0.14115877     0.14900
N554        N  0.15387729  0.94336557  0.08690071     0.74000
O555        O  0.13262181  0.93115206  0.29689573    -0.39500
O556        O  0.17802625  0.91869567  0.28669664    -0.39400
O557        O  0.12408774  0.93844358  0.06825105    -0.40100
O558        O  0.18538778  0.96129802  0.06698531    -0.40200
C559        C  0.43673442  0.65050532  0.20456779    -0.12500
C560        C  0.40604687  0.62223924  0.18137892     0.04500
C561        C  0.40967630  0.61925695  0.13571749    -0.07800
C562        C  0.44247002  0.64710641  0.11348572    -0.08500
C563        C  0.47139416  0.67794449  0.13643203    -0.03100
C564        C  0.46910823  0.67818918  0.18267816     0.03800
N565        N  0.00086047  0.70336955  0.20914072     0.66300
H566        H  0.43410093  0.65322312  0.23955991     0.15200
H567        H  0.44352625  0.64662152  0.07798835     0.14900
N568        N  0.37847082  0.59107305  0.11091448     0.74000
O569        O  0.99562721  0.72821891  0.22645297    -0.39500
O570        O  0.02804223  0.69941127  0.22199493    -0.39400
O571        O  0.37613198  0.55968360  0.10366552    -0.40100
O572        O  0.35653267  0.59945936  0.09111975    -0.40200
C573        C  0.11750625  0.77164894  0.29572826    -0.12500
C574        C  0.14827766  0.76556808  0.29235171     0.04500
C575        C  0.15884589  0.75944606  0.25040811    -0.07800
C576        C  0.14146946  0.76408186  0.21309794    -0.08500
C577        C  0.11345561  0.77420496  0.21658225    -0.03100
C578        C  0.10018641  0.77627879  0.25867794     0.03800
N579        N  0.07144986  0.78599346  0.26514124     0.66300
H580        H  0.10843998  0.77580895  0.32754494     0.15200
H581        H  0.15060506  0.76055889  0.18099767     0.14900
N582        N  0.18606178  0.74756041  0.24473364     0.74000
O583        O  0.04563093  0.76789224  0.29328746    -0.39500
O584        O  0.07769351  0.81801893  0.25259951    -0.39400
O585        O  0.17620761  0.71721707  0.22443153    -0.40100
O586        O  0.22107215  0.77121785  0.24900818    -0.40200
C587        C  0.09928930  0.81945614  0.91354681    -0.12500
C588        C  0.11348542  0.83951863  0.95275887     0.04500
C589        C  0.14334425  0.87750455  0.95078894    -0.07800
C590        C  0.16003935  0.89403631  0.91076901    -0.08500
C591        C  0.14806381  0.87334590  0.87193052    -0.03100
C592        C  0.11646870  0.83582172  0.87317041     0.03800
N593        N  0.10320659  0.81295343  0.83465570     0.66300
H594        H  0.07640193  0.79010487  0.91448843     0.15200
H595        H  0.18332822  0.92320393  0.91042448     0.14900
N596        N  0.15592791  0.90063572  0.98875916     0.74000
O597        O  0.12336036  0.80119827  0.81743925    -0.39500
O598        O  0.06884317  0.79849008  0.82331334    -0.39400
O599        O  0.18352045  0.90314711  0.01036708    -0.40100
O600        O  0.14842344  0.92682803  0.99133611    -0.40200
C601        C  0.20901598  0.89329963  0.57883774    -0.12500
C602        C  0.22082422  0.88490611  0.61850838     0.04500
C603        C  0.23278760  0.85794839  0.61844826    -0.07800
C604        C  0.22921726  0.83769251  0.58016607    -0.08500
C605        C  0.21541892  0.84460193  0.54112340    -0.03100
C606        C  0.20598065  0.87339730  0.54040469     0.03800
N607        N  0.19043714  0.88085548  0.50206083     0.66300
H608        H  0.19962501  0.91372600  0.57813991     0.15200
H609        H  0.23752339  0.81644968  0.58093460     0.14900
N610        N  0.24895427  0.85103503  0.65671688     0.74000
O611        O  0.15815097  0.85589180  0.48818519    -0.39500
O612        O  0.20581893  0.91411735  0.48660021    -0.39400
O613        O  0.23849335  0.81749377  0.66844818    -0.40100
O614        O  0.27689740  0.87836329  0.67562756    -0.40200
C615        C  0.27775800  0.60774403  0.08527584    -0.12500
C616        C  0.28288266  0.62653321  0.12531462     0.04500
C617        C  0.28489865  0.66209759  0.12464994    -0.07800
C618        C  0.28396280  0.67873587  0.08459931    -0.08500
C619        C  0.28150803  0.66112457  0.04434885    -0.03100
C620        C  0.27698144  0.62445598  0.04522483     0.03800
N621        N  0.27269800  0.60406265  0.00575355     0.66300
H622        H  0.27532075  0.58014819  0.08475272     0.15200
H623        H  0.28667535  0.70644009  0.08512265     0.14900
N624        N  0.29008408  0.68289541  0.16401316     0.74000
O625        O  0.30118572  0.60452964  0.98899906    -0.39500
O626        O  0.23981928  0.58149839  0.99122990    -0.39400
O627        O  0.32326397  0.70700424  0.17634586    -0.40100
O628        O  0.26172263  0.68135189  0.18260017    -0.40200
C629        C  0.17711397  0.71026877  0.01172521    -0.12500
C630        C  0.18093470  0.71583510  0.96572452     0.04500
C631        C  0.15721592  0.72657723  0.94406686    -0.07800
C632        C  0.13198515  0.73315233  0.96879466    -0.08500
C633        C  0.13108707  0.73094861  0.01506465    -0.03100
C634        C  0.15320742  0.71839878  0.03634627     0.03800
N635        N  0.15238411  0.71464294  0.08305432     0.66300
H636        H  0.19460272  0.70160038  0.02926548     0.15200
H637        H  0.11547133  0.74338006  0.95197533     0.14900
N638        N  0.16121098  0.73498547  0.89804495     0.74000
O639        O  0.12394435  0.68727343  0.10163724    -0.39500
O640        O  0.18164077  0.73607472  0.10522944    -0.39400
O641        O  0.13287694  0.71734323  0.87309749    -0.40100
O642        O  0.19061214  0.76425236  0.88381476    -0.40200
C643        C  0.43637991  0.78921370  0.95982141    -0.12500
C644        C  0.40569370  0.78681017  0.98274502     0.04500
C645        C  0.40917794  0.79439858  0.02815846    -0.07800
C646        C  0.44196830  0.80055983  0.05056575    -0.08500
C647        C  0.47111092  0.79911461  0.02808172    -0.03100
C648        C  0.46900196  0.79548488  0.98188647     0.03800
N649        N  0.49859240  0.79521427  0.95721763     0.66300
H650        H  0.43379989  0.78323332  0.92501715     0.15200
H651        H  0.44298904  0.80286484  0.08600109     0.14900
N652        N  0.37782172  0.79106634  0.05272280     0.74000
O653        O  0.49256715  0.76479987  0.93978414    -0.39500
O654        O  0.02724314  0.82525077  0.94979024    -0.39400
O655        O  0.36072053  0.76423630  0.07998039    -0.40100
O656        O  0.37110049  0.81790252  0.05216652    -0.40200
C657        C  0.21165385  0.57071569  0.86451897    -0.12500
C658        C  0.22965393  0.60527498  0.84164234     0.04500
C659        C  0.23716183  0.60521163  0.79633396    -0.07800
C660        C  0.22826301  0.57115538  0.77542552    -0.08500
C661        C  0.21212369  0.53674911  0.79877681    -0.03100
C662        C  0.20240732  0.53658850  0.84355967     0.03800
N663        N  0.18458945  0.50218952  0.86878474     0.66300
H664        H  0.20615928  0.57040763  0.89934157     0.15200
H665        H  0.23640820  0.57213599  0.74140067     0.14900
N666        N  0.25639309  0.63992987  0.77178444     0.74000
O667        O  0.20074342  0.49919926  0.90264996    -0.39500
O668        O  0.14976745  0.97742748  0.86619637    -0.39400
O669        O  0.28583869  0.64791906  0.74994462    -0.40100
O670        O  0.24077629  0.65947531  0.76638958    -0.40200
C671        C  0.28605381  0.85765384  0.79392797    -0.12500
C672        C  0.27301268  0.87767638  0.81800636     0.04500
C673        C  0.27216434  0.87492414  0.86429661    -0.07800
C674        C  0.28139766  0.84995549  0.88539420    -0.08500
C675        C  0.29217116  0.82793425  0.86111215    -0.03100
C676        C  0.29657900  0.83375828  0.81492355     0.03800
N677        N  0.31016517  0.81431074  0.78856257     0.66300
H678        H  0.28700210  0.85968365  0.75845489     0.15200
H679        H  0.27764414  0.84596894  0.92060415     0.14900
N680        N  0.25893240  0.89493835  0.89007195     0.74000
O681        O  0.28956126  0.79248978  0.75845393    -0.39500
O682        O  0.34423060  0.82217321  0.79214016    -0.39400
O683        O  0.22943681  0.87676548  0.91343666    -0.40100
O684        O  0.27957972  0.93037949  0.89436921    -0.40200
C685        C  0.34601634  0.56865811  0.72578404    -0.12500
C686        C  0.32541198  0.53541928  0.70135271     0.04500
C687        C  0.33366255  0.53639253  0.65596567    -0.07800
C688        C  0.35872104  0.57091416  0.63531757    -0.08500
C689        C  0.37706899  0.60456073  0.65913483    -0.03100
C690        C  0.37175145  0.60311028  0.70511836     0.03800
N691        N  0.38814950  0.63707430  0.73030834     0.66300
H692        H  0.33966150  0.56872053  0.76028563     0.15200
H693        H  0.36307498  0.57160179  0.60020790     0.14900
N694        N  0.31391971  0.00495086  0.63234606     0.74000
O695        O  0.36755371  0.65020938  0.74214958    -0.39500
O696        O  0.42038592  0.64939360  0.74768371    -0.39400
O697        O  0.29415172  0.00326879  0.59959734    -0.40100
O698        O  0.32007327  0.97820787  0.63987252    -0.40200
C699        C  0.03217735  0.84113109  0.66746635    -0.12500
C700        C  0.03629996  0.83420564  0.62331753     0.04500
C701        C  0.07190663  0.85624378  0.60249116    -0.07800
C702        C  0.10321189  0.88265487  0.62721520    -0.08500
C703        C  0.09976276  0.88660846  0.67245673    -0.03100
C704        C  0.06358917  0.86716233  0.69217087     0.03800
N705        N  0.05899165  0.87141895  0.73791819     0.66300
H706        H  0.00493521  0.82400706  0.68373388     0.15200
H707        H  0.13121811  0.89692866  0.61216345     0.14900
N708        N  0.07797971  0.84882056  0.55825569     0.74000
O709        O  0.06806235  0.90361620  0.75273075    -0.39500
O710        O  0.04221489  0.84259175  0.76257969    -0.39400
O711        O  0.59458490  0.87095887  0.52834151    -0.40100
O712        O  0.07205266  0.81644450  0.54810179    -0.40200
C713        C  0.40974367  0.73754250  0.75227247    -0.12500
C714        C  0.39335082  0.73689663  0.71167567     0.04500
C715        C  0.35946296  0.73819474  0.71083825    -0.07800
C716        C  0.34047221  0.73585144  0.74990740    -0.08500
C717        C  0.35460945  0.73232386  0.79052874    -0.03100
C718        C  0.39067440  0.73486475  0.79158070     0.03800
N719        N  0.40727764  0.73200569  0.83172308     0.66300
H720        H  0.43585868  0.73672262  0.75355695     0.15200
H721        H  0.31393092  0.73580832  0.74818640     0.14900
N722        N  0.34442556  0.74274534  0.67045870     0.74000
O723        O  0.39541035  0.69980241  0.84904473    -0.39500
O724        O  0.43872159  0.75964380  0.84391840    -0.39400
O725        O  0.31200492  0.71716747  0.65769010    -0.40100
O726        O  0.36003144  0.77507880  0.65252840    -0.40200
C727        C  0.06349048  0.70743044  0.47083790    -0.12500
C728        C  0.09590036  0.71417857  0.49374640     0.04500
C729        C  0.09445037  0.71158454  0.54007840    -0.07800
C730        C  0.06196786  0.70634424  0.56266748    -0.08500
C731        C  0.03086698  0.70339210  0.53945961    -0.03100
C732        C  0.03103738  0.70155610  0.49309903     0.03800
N733        N  0.49785264  0.69079254  0.46544834     0.66300
H734        H  0.06427169  0.70928759  0.43530132     0.15200
H735        H  0.06265758  0.70836996  0.59811974     0.14900
N736        N  0.12734166  0.71897050  0.56462440     0.74000
O737        O  0.50096213  0.71305107  0.43471809    -0.39500
O738        O  0.46754263  0.65912725  0.46938922    -0.39400
O739        O  0.13098842  0.69162554  0.57738899    -0.40100
O740        O  0.14876076  0.75155547  0.58019234    -0.40200
C741        C  0.34960313  0.77842592  0.53854661    -0.12500
C742        C  0.37541695  0.77397106  0.51319293     0.04500
C743        C  0.37554040  0.77897985  0.46714585    -0.07800
C744        C  0.34755032  0.78468398  0.44744881    -0.08500
C745        C  0.31984083  0.78643434  0.47299051    -0.03100
C746        C  0.32235489  0.78484500  0.51948057     0.03800
N747        N  0.29561987  0.78653153  0.54827102     0.66300
H748        H  0.34903459  0.77471431  0.57365424     0.15200
H749        H  0.34650000  0.78598976  0.41199241     0.14900
N750        N  0.40187169  0.77538337  0.43969481     0.74000
O751        O  0.26778000  0.75613186  0.56294833    -0.39500
O752        O  0.30419094  0.81757388  0.56605862    -0.39400
O753        O  0.39008040  0.74763772  0.41402267    -0.40100
O754        O  0.43581685  0.80247329  0.43667105    -0.40200
C755        C  0.40630232  0.67468163  0.41522997    -0.12500
C756        C  0.39002136  0.65736318  0.45548152     0.04500
C757        C  0.35816350  0.62026142  0.45593735    -0.07800
C758        C  0.34148834  0.60243634  0.41636647    -0.08500
C759        C  0.35533104  0.62143243  0.37607482    -0.03100
C760        C  0.38920499  0.65747867  0.37568213     0.03800
N761        N  0.40453597  0.67896157  0.33607740     0.66300
H762        H  0.43067928  0.70325708  0.41433415     0.15200
H763        H  0.31613735  0.57451875  0.41742708     0.14900
N764        N  0.34167783  0.60078630  0.49627561     0.74000
O765        O  0.39038860  0.69773851  0.32060183    -0.39500
O766        O  0.43665916  0.68586943  0.32252021    -0.39400
O767        O  0.31107360  0.59782207  0.50984333    -0.40100
O768        O  0.35414000  0.58145840  0.51432887    -0.40200
O769        O  0.94198053  0.23808288  0.66837576    -0.82000
C770        C  0.90365529  0.17984021  0.49623346     0.97400
O771        O  0.88060754  0.17463008  0.52678081    -0.71100
O772        O  0.88164932  0.14670919  0.60318412    -0.74700
Al773      Al  0.88599360  0.19323015  0.58482589     1.49000
C774        C  0.89704595  0.14140873  0.63601213     0.92600
O775        O  0.98713861  0.19612212  0.59391181    -0.80900
O776        O  0.98889097  0.29313437  0.57050382    -0.74500
Al777      Al  0.96330430  0.21735854  0.62940096     1.90100
O778        O  0.00225483  0.23752699  0.54014801    -0.73600
O779        O  0.92691495  0.26299655  0.51964979    -0.73400
O780        O  0.93807601  0.20600195  0.49812524    -0.79100
O781        O  0.88035147  0.23439860  0.56642244    -0.77300
O782        O  0.93666438  0.21927478  0.58352462    -1.13400
O783        O  0.88312745  0.20773558  0.64322980    -0.72600
C784        C  0.90713588  0.22807005  0.67203903     0.98100
C785        C  0.00512043  0.21143366  0.55861578     0.94500
Al786      Al  0.96186729  0.24756917  0.53653188     1.55600
O787        O  0.92792468  0.16788219  0.65023986    -0.77200
C788        C  0.89563118  0.25679722  0.53451550     0.98700
C789        C  0.00910285  0.29594903  0.60336800     0.93600
O790        O  0.00534691  0.26690538  0.62239073    -0.82500
O791        O  0.79551609  0.21588657  0.82714072    -0.82000
C792        C  0.78649508  0.18256392  0.00290641     0.97400
O793        O  0.78657111  0.16769777  0.96663632    -0.71100
O794        O  0.78145239  0.15433249  0.88006326    -0.74700
Al795      Al  0.81432672  0.19633762  0.91686033     1.49000
C796        C  0.74786712  0.14095443  0.86666772     0.92600
O797        O  0.71717851  0.21275090  0.90402922    -0.80900
O798        O  0.79258186  0.29029154  0.92292787    -0.74500
Al799      Al  0.75852930  0.21390742  0.86929385     1.90100
O800        O  0.74196062  0.22700220  0.96984175    -0.73600
O801        O  0.84746245  0.28035951  0.95593743    -0.73400
O802        O  0.79396056  0.21684464  0.00408161    -0.79100
O803        O  0.85511340  0.23147309  0.95312732    -0.77300
O804        O  0.78847929  0.22055916  0.91507114    -1.13400
O805        O  0.84367238  0.22373403  0.86790911    -0.72600
C806        C  0.83013021  0.22425633  0.83081521     0.98100
C807        C  0.71419997  0.21722916  0.94485309     0.94500
Al808      Al  0.79351654  0.25107143  0.95923473     1.55600
O809        O  0.73126068  0.15946880  0.87205857    -0.77200
C810        C  0.86756411  0.26567185  0.96249971     0.98700
C811        C  0.78923380  0.29320595  0.88186990     0.93600
O812        O  0.78051103  0.26551537  0.85754124    -0.82500
O813        O  0.70462926  0.41841157  0.83562133    -0.82000
C814        C  0.71466646  0.39992828  0.65983534     0.97400
O815        O  0.71392303  0.38391002  0.69570342    -0.71100
O816        O  0.71996248  0.37395596  0.78089079    -0.74700
Al817      Al  0.68611718  0.38291883  0.74528653     1.49000
C818        C  0.75346759  0.39503280  0.79465139     0.92600
O819        O  0.78192459  0.49794384  0.76261486    -0.80900
O820        O  0.71081724  0.50042306  0.74103217    -0.74500
Al821      Al  0.74066996  0.45575659  0.79515250     1.90100
O822        O  0.76082703  0.48708768  0.69508321    -0.73600
O823        O  0.65455795  0.43592752  0.70697189    -0.73400
O824        O  0.70734722  0.42664353  0.65890281    -0.79100
O825        O  0.64548248  0.37853182  0.70901477    -0.77900
O826        O  0.71193162  0.43326148  0.74840235    -1.13400
O827        O  0.65642911  0.37826326  0.79464794    -0.72600
C828        C  0.67050471  0.39110610  0.83184219     0.98100
C829        C  0.78734670  0.50498511  0.72174543     0.94500
Al830      Al  0.70865627  0.46035387  0.70441310     1.55600
O831        O  0.76903761  0.43052917  0.79136849    -0.77200
C832        C  0.63419138  0.40111909  0.69885729     0.98700
C833        C  0.71131118  0.50464628  0.78230696     0.93600
O834        O  0.71659493  0.48332403  0.80731398    -0.82500
O835        O  0.56551217  0.27574672  0.17269065    -0.82000
C836        C  0.60018876  0.31894511  0.99508902     0.97400
O837        O  0.62380414  0.32707390  0.02603480    -0.71100
O838        O  0.62696010  0.35986588  0.10127735    -0.74700
Al839      Al  0.62034143  0.31141564  0.08560759     1.49000
C840        C  0.61008498  0.36754068  0.13030116     0.92600
O841        O  0.51838898  0.30885345  0.08870379    -0.80900
O842        O  0.51823907  0.21098627  0.08201269    -0.74500
Al843      Al  0.54318709  0.29161840  0.12892117     1.90100
O844        O  0.50176936  0.26201276  0.04297122    -0.73600
O845        O  0.57781631  0.23805286  0.02689865    -0.73400
O846        O  0.56585817  0.29246753  0.99877805    -0.79100
O847        O  0.62636228  0.26938541  0.06975793    -0.77300
O848        O  0.56951190  0.28586001  0.08554570    -1.13400
O849        O  0.62331115  0.29877643  0.14521507    -0.72600
C850        C  0.59948494  0.28301837  0.17618372     0.98100
C851        C  0.49929719  0.28976657  0.05594826     0.94500
Al852      Al  0.54326405  0.25367575  0.04202326     1.55600
O853        O  0.57774113  0.34257695  0.14310806    -0.77200
C854        C  0.60998117  0.24560825  0.03968108     0.98700
C855        C  0.49902872  0.21060451  0.11484733     0.93600
O856        O  0.50172921  0.24092617  0.12816653    -0.82500
O857        O  0.70334564  0.27762255  0.33100590    -0.82000
C858        C  0.70980922  0.32030354  0.50254605     0.97400
O859        O  0.70888309  0.33207043  0.46439858    -0.71100
O860        O  0.71670376  0.34010932  0.37806761    -0.74700
Al861      Al  0.68261489  0.29965224  0.41703330     1.49000
C862        C  0.75092935  0.35307612  0.36668278     0.92600
O863        O  0.77913501  0.28042103  0.41066117    -0.80900
O864        O  0.71084626  0.21139262  0.43940597    -0.74500
Al865      Al  0.73824138  0.27939751  0.37517684     1.90100
O866        O  0.75956170  0.28080848  0.47698703    -0.73600
O867        O  0.65351560  0.21967621  0.46934573    -0.73400
O868        O  0.70486871  0.28735502  0.50841020    -0.79100
O869        O  0.64202637  0.26536220  0.45511425    -0.77300
O870        O  0.70947293  0.27688879  0.42057209    -1.13400
O871        O  0.65423785  0.26885372  0.36986549    -0.72600
C872        C  0.66884248  0.26899934  0.33332281     0.98100
C873        C  0.78493087  0.28341965  0.45182604     0.94500
Al874      Al  0.70743046  0.25176020  0.46928510     1.55600
O875        O  0.76686240  0.33389626  0.37347110    -0.77200
C876        C  0.63195490  0.23324063  0.47161683     0.98700
C877        C  0.70946730  0.20320446  0.39904148     0.93600
O878        O  0.71260863  0.22641356  0.36987306    -0.82500
O879        O  0.79399844  0.08218193  0.16402209    -0.82000
C880        C  0.83116242  0.10561211  0.33680275     0.97400
O881        O  0.84525763  0.12039048  0.29992701    -0.71100
O882        O  0.85636912  0.12758043  0.21440129    -0.74700
Al883      Al  0.81649560  0.12128975  0.25232226     1.49000
C884        C  0.86816717  0.10592588  0.20305041     0.92600
O885        O  0.79202987  0.00506972  0.24166180    -0.80900
O886        O  0.71624931  0.00887778  0.26272283    -0.74500
Al887      Al  0.79340010  0.04614533  0.20694845     1.90100
O888        O  0.77752274  0.01466748  0.30742930    -0.73600
O889        O  0.73347048  0.07588796  0.29666906    -0.73400
O890        O  0.79613583  0.07986577  0.34040653    -0.79100
O891        O  0.78542798  0.13068061  0.29163147    -0.77300
O892        O  0.78912600  0.07088667  0.25234289    -1.13400
O893        O  0.78911237  0.12445164  0.20371953    -0.72600
C894        C  0.78798787  0.10982405  0.16677710     0.98100
C895        C  0.78694492  0.99680725  0.28228030     0.94500
Al896      Al  0.75839060  0.04680327  0.29776466     1.55600
O897        O  0.84755656  0.07073159  0.20860982    -0.77200
C898        C  0.75168133  0.11077219  0.30499931     0.98700
C899        C  0.71338849  0.00198684  0.22193815     0.93600
O900        O  0.74181701  0.01871199  0.19730811    -0.82500
C901        C  0.74154366  0.16640582  0.39795771    -0.12500
C902        C  0.71059145  0.16947776  0.38418918     0.04500
C903        C  0.68966306  0.14868226  0.34709892    -0.07800
C904        C  0.70222442  0.12815226  0.32228649    -0.08500
C905        C  0.73557673  0.12829766  0.33382743    -0.03100
C906        C  0.75444489  0.14664052  0.37297576     0.03800
N907        N  0.78796590  0.14706050  0.38709490     0.66300
H908        H  0.75831158  0.18269358  0.42582383     0.15200
H909        H  0.68676651  0.11331587  0.29311952     0.14900
N910        N  0.65609360  0.14893005  0.33399608     0.74000
O911        O  0.81970125  0.17231429  0.37195432    -0.39500
O912        O  0.78699356  0.13085733  0.42284168    -0.39400
O913        O  0.65149479  0.15496235  0.29443971    -0.40100
O914        O  0.62934901  0.13946724  0.36113929    -0.40200
C915        C  0.78601197  0.42337746  0.36875295    -0.12500
C916        C  0.77086804  0.39036331  0.34384281     0.04500
C917        C  0.76762775  0.39308274  0.29798418    -0.07800
C918        C  0.77748171  0.42811049  0.27819355    -0.08500
C919        C  0.79056516  0.46093722  0.30345320    -0.03100
C920        C  0.79628951  0.45845875  0.34915674     0.03800
N921        N  0.81042708  0.49093104  0.37677422     0.66300
H922        H  0.78814047  0.42163327  0.40405916     0.15200
H923        H  0.77243727  0.42900938  0.24340672     0.14900
N924        N  0.75221795  0.35999329  0.27142019     0.74000
O925        O  0.78842056  0.49337411  0.40384936    -0.39500
O926        O  0.84088229  0.01930584  0.37501117    -0.39400
O927        O  0.72122038  0.34883009  0.25144281    -0.40100
O928        O  0.77281949  0.34634470  0.26165448    -0.40200
C929        C  0.62927922  0.40297452  0.20042130    -0.12500
C930        C  0.62998189  0.40407443  0.15434021     0.04500
C931        C  0.65399697  0.43905583  0.13355998    -0.07800
C932        C  0.67806492  0.47071227  0.15867590    -0.08500
C933        C  0.68089904  0.46813108  0.20443995    -0.03100
C934        C  0.65489695  0.43400437  0.22572454     0.03800
N935        N  0.65701675  0.42918078  0.27190693     0.66300
H936        H  0.61039304  0.37584861  0.21746547     0.15200
H937        H  0.69678855  0.49724107  0.14153010     0.14900
N938        N  0.65460977  0.44315555  0.08709534     0.74000
O939        O  0.63285158  0.42974557  0.29715777    -0.39500
O940        O  0.67914770  0.41866460  0.28657298    -0.39400
O941        O  0.62533664  0.43931479  0.06819424    -0.40100
O942        O  0.68632015  0.46041383  0.06750417    -0.40200
C943        C  0.93626588  0.15195582  0.20512847    -0.12500
C944        C  0.90583980  0.12333163  0.18200279     0.04500
C945        C  0.90973980  0.12001103  0.13647612    -0.07800
C946        C  0.94253026  0.14786058  0.11423666    -0.08500
C947        C  0.97115711  0.17903749  0.13704915    -0.03100
C948        C  0.96862406  0.17963475  0.18324485     0.03800
N949        N  0.49956181  0.20573274  0.20952308     0.66300
H950        H  0.93343517  0.15488534  0.24002049     0.15200
H951        H  0.94378362  0.14708180  0.07877649     0.14900
N952        N  0.87879574  0.09143223  0.11173466     0.74000
O953        O  0.49369950  0.23079883  0.22496601    -0.39500
O954        O  0.52618739  0.20194257  0.22480349    -0.39400
O955        O  0.87744078  0.06057751  0.10393128    -0.40100
O956        O  0.85602570  0.09903154  0.09256393    -0.40200
C957        C  0.61607217  0.27058277  0.29623384    -0.12500
C958        C  0.64659843  0.26412430  0.29304026     0.04500
C959        C  0.65722089  0.25796150  0.25118807    -0.07800
C960        C  0.64018043  0.26284541  0.21373444    -0.08500
C961        C  0.61242443  0.27334172  0.21698330    -0.03100
C962        C  0.59908219  0.27552107  0.25903089     0.03800
N963        N  0.57050196  0.28547424  0.26530922     0.66300
H964        H  0.60698864  0.27479768  0.32801125     0.15200
H965        H  0.64939822  0.25923508  0.18172618     0.14900
N966        N  0.68434822  0.24595962  0.24580933     0.74000
O967        O  0.54432628  0.26719912  0.29301371    -0.39500
O968        O  0.57718637  0.31776270  0.25323554    -0.39400
O969        O  0.67397873  0.21469102  0.22744184    -0.40100
O970        O  0.71943324  0.26995408  0.24821801    -0.40200
C971        C  0.59950037  0.31931266  0.91361317    -0.12500
C972        C  0.61392813  0.33924013  0.95287102     0.04500
C973        C  0.64384840  0.37720724  0.95093414    -0.07800
C974        C  0.66028820  0.39386832  0.91085331    -0.08500
C975        C  0.64803091  0.37331196  0.87193772    -0.03100
C976        C  0.61642830  0.33582495  0.87320470     0.03800
N977        N  0.60288194  0.31316345  0.83458859     0.66300
H978        H  0.57653988  0.28999293  0.91449222     0.15200
H979        H  0.68362704  0.42301383  0.91051543     0.14900
N980        N  0.65673216  0.40021149  0.98899630     0.74000
O981        O  0.62193464  0.29982706  0.81814932    -0.39500
O982        O  0.56905889  0.30065088  0.82215870    -0.39400
O983        O  0.68405749  0.40212536  0.01060913    -0.40100
O984        O  0.64983959  0.42681569  0.99168719    -0.40200
C985        C  0.70853804  0.39296172  0.57868422    -0.12500
C986        C  0.72055343  0.38478225  0.61834162     0.04500
C987        C  0.73280396  0.35805434  0.61831786    -0.07800
C988        C  0.72931206  0.33777961  0.58009164    -0.08500
C989        C  0.71519971  0.34437620  0.54110428    -0.03100
C990        C  0.70549603  0.37298028  0.54032168     0.03800
N991        N  0.68962185  0.38010423  0.50203758     0.66300
H992        H  0.69893521  0.41322151  0.57797324     0.15200
H993        H  0.73781316  0.31668194  0.58089941     0.14900
N994        N  0.74908810  0.35132229  0.65660374     0.74000
O995        O  0.65733667  0.35490922  0.48842262    -0.39500
O996        O  0.70464977  0.41330338  0.48646007    -0.39400
O997        O  0.73879972  0.31783973  0.66841473    -0.40100
O998        O  0.77689592  0.37877088  0.67553770    -0.40200
C999        C  0.77685970  0.10755867  0.08579884    -0.12500
C1000       C  0.78194444  0.12638653  0.12580646     0.04500
C1001       C  0.78376579  0.16185531  0.12506994    -0.07800
C1002       C  0.78286167  0.17845481  0.08496397    -0.08500
C1003       C  0.78053333  0.16084517  0.04474094    -0.03100
C1004       C  0.77597705  0.12416832  0.04571133     0.03800
N1005       N  0.77140931  0.10360561  0.00630371     0.66300
H1006       H  0.77446654  0.07998109  0.08533585     0.15200
H1007       H  0.78548033  0.20611897  0.08542557     0.14900
N1008       N  0.78868527  0.18257969  0.16442540     0.74000
O1009       O  0.79948955  0.10294871  0.99008452    -0.39500
O1010       O  0.73848349  0.08199802  0.99126482    -0.39400
O1011       O  0.82172574  0.20726298  0.17652867    -0.40100
O1012       O  0.76008191  0.18027001  0.18330891    -0.40200
C1013       C  0.67602712  0.20889569  0.01183883    -0.12500
C1014       C  0.67988106  0.21455118  0.96586364     0.04500
C1015       C  0.65610456  0.22520824  0.94420474    -0.07800
C1016       C  0.63090003  0.23180631  0.96893844    -0.08500
C1017       C  0.63004369  0.22963970  0.01521109    -0.03100
C1018       C  0.65208022  0.21696993  0.03647231     0.03800
N1019       N  0.65112831  0.21303757  0.08316444     0.66300
H1020       H  0.69355976  0.20025479  0.02933286     0.15200
H1021       H  0.61441904  0.24207269  0.95212044     0.14900
N1022       N  0.66008536  0.23359598  0.89817931     0.74000
O1023       O  0.62250142  0.18576294  0.10160063    -0.39500
O1024       O  0.68044404  0.23411034  0.10544149    -0.39400
O1025       O  0.63182436  0.21573016  0.87318921    -0.40100
O1026       O  0.68939048  0.26295533  0.88394293    -0.40200
C1027       C  0.93601956  0.28989589  0.96018277    -0.12500
C1028       C  0.90509182  0.28679527  0.98328944     0.04500
C1029       C  0.90846635  0.29405415  0.02877088    -0.07800
C1030       C  0.94144239  0.30062094  0.05103515    -0.08500
C1031       C  0.97088911  0.29991347  0.02833938    -0.03100
C1032       C  0.96887633  0.29665733  0.98212309     0.03800
N1033       N  0.99891186  0.29737495  0.95731677     0.66300
H1034       H  0.93353967  0.28421969  0.92530878     0.15200
H1035       H  0.94239270  0.30259568  0.08650229     0.14900
N1036       N  0.87684912  0.28987993  0.05352474     0.74000
O1037       O  0.99331680  0.26770514  0.93830935    -0.39500
O1038       O  0.52836880  0.32662873  0.95068428    -0.39400
O1039       O  0.85971485  0.26233549  0.07987949    -0.40100
O1040       O  0.87011329  0.31669348  0.05439509    -0.40200
C1041       C  0.71182253  0.07031178  0.86446878    -0.12500
C1042       C  0.73007316  0.10493784  0.84173636     0.04500
C1043       C  0.73807757  0.10500561  0.79655407    -0.07800
C1044       C  0.72934866  0.07099942  0.77564230    -0.08500
C1045       C  0.71291468  0.03651994  0.79886896    -0.03100
C1046       C  0.70279421  0.03624721  0.84350748     0.03800
N1047       N  0.68477735  0.00179038  0.86860738     0.66300
H1048       H  0.70596427  0.06989867  0.89920178     0.15200
H1049       H  0.73781059  0.07206023  0.74173342     0.14900
N1050       N  0.75752159  0.13978513  0.77213815     0.74000
O1051       O  0.70087971  0.99855700  0.90237523    -0.39500
O1052       O  0.64890381  0.47661042  0.86405596    -0.39400
O1053       O  0.78701157  0.14771105  0.75042647    -0.40100
O1054       O  0.74201703  0.15942334  0.76664137    -0.40200
C1055       C  0.78520266  0.35695769  0.79369741    -0.12500
C1056       C  0.77260713  0.37737507  0.81775726     0.04500
C1057       C  0.77202494  0.37486478  0.86406244    -0.07800
C1058       C  0.78111106  0.34980778  0.88521852    -0.08500
C1059       C  0.79144230  0.32742098  0.86097636    -0.03100
C1060       C  0.79557071  0.33295202  0.81473538     0.03800
N1061       N  0.80872988  0.31311813  0.78838767     0.66300
H1062       H  0.78592222  0.35877396  0.75821126     0.15200
H1063       H  0.77754967  0.34602931  0.92046489     0.14900
N1064       N  0.75909403  0.39513892  0.88982400     0.74000
O1065       O  0.78806959  0.29166012  0.75806498    -0.39500
O1066       O  0.84249851  0.32015133  0.79235619    -0.39400
O1067       O  0.72941339  0.37716924  0.91294004    -0.40100
O1068       O  0.78023397  0.43047419  0.89458173    -0.40200
C1069       C  0.84680044  0.06850486  0.72640889    -0.12500
C1070       C  0.82623025  0.03532519  0.70185501     0.04500
C1071       C  0.83440772  0.03648084  0.65642065    -0.07800
C1072       C  0.85909641  0.07114053  0.63581091    -0.08500
C1073       C  0.87730093  0.10472283  0.65975317    -0.03100
C1074       C  0.87232279  0.10307282  0.70580473     0.03800
N1075       N  0.88898520  0.13691843  0.73122776     0.66300
H1076       H  0.84060433  0.06840737  0.76098963     0.15200
H1077       H  0.86332588  0.07197203  0.60065847     0.14900
N1078       N  0.81404768  0.50457056  0.63229626     0.74000
O1079       O  0.86871255  0.15041221  0.74309832    -0.39500
O1080       O  0.92116613  0.14886791  0.74859606    -0.39400
O1081       O  0.79455949  0.50282598  0.59923486    -0.40100
O1082       O  0.81989961  0.47771206  0.64041444    -0.40200
C1083       C  0.53179709  0.34164903  0.66691737    -0.12500
C1084       C  0.53595543  0.33445293  0.62287946     0.04500
C1085       C  0.57166497  0.35613543  0.60217256    -0.07800
C1086       C  0.60301820  0.38239533  0.62693957    -0.08500
C1087       C  0.59950265  0.38656529  0.67211342    -0.03100
C1088       C  0.56325123  0.36754321  0.69168734     0.03800
N1089       N  0.55857124  0.37211692  0.73734275     0.66300
H1090       H  0.50445556  0.32480345  0.68307305     0.15200
H1091       H  0.63106476  0.39638200  0.61199783     0.14900
N1092       N  0.57774283  0.34846603  0.55805086     0.74000
O1093       O  0.56927332  0.40470168  0.75218374    -0.39500
O1094       O  0.54028321  0.34341349  0.76187208    -0.39400
O1095       O  0.09356780  0.36997058  0.52784450    -0.40100
O1096       O  0.57164548  0.31598070  0.54814734    -0.40200
C1097       C  0.90945456  0.23809271  0.75260053    -0.12500
C1098       C  0.89288592  0.23718571  0.71203739     0.04500
C1099       C  0.85889323  0.23828145  0.71125413    -0.07800
C1100       C  0.83995669  0.23592739  0.75036914    -0.08500
C1101       C  0.85426720  0.23261234  0.79097565    -0.03100
C1102       C  0.89046615  0.23545885  0.79195632     0.03800
N1103       N  0.90733445  0.23302379  0.83209212     0.66300
H1104       H  0.93568171  0.23748171  0.75384121     0.15200
H1105       H  0.81330921  0.23567623  0.74869462     0.14900
N1106       N  0.84365257  0.24255713  0.67087934     0.74000
O1107       O  0.89593472  0.20095576  0.84955257    -0.39500
O1108       O  0.93861959  0.26097782  0.84412975    -0.39400
O1109       O  0.81118851  0.21687724  0.65836380    -0.40100
O1110       O  0.85920706  0.27474027  0.65258474    -0.40200
C1111       C  0.56263749  0.20505120  0.47328598    -0.12500
C1112       C  0.59571790  0.21378057  0.49605827     0.04500
C1113       C  0.59514427  0.21350063  0.54246086    -0.07800
C1114       C  0.56266453  0.20826532  0.56498571    -0.08500
C1115       C  0.53071105  0.20308193  0.54170965    -0.03100
C1116       C  0.53017757  0.19921547  0.49556501     0.03800
N1117       N  0.99695456  0.18873885  0.46719974     0.66300
H1118       H  0.56282988  0.20528274  0.43770406     0.15200
H1119       H  0.56390176  0.21201521  0.60022671     0.14900
N1120       N  0.62881646  0.22328973  0.56681759     0.74000
O1121       O  0.99955673  0.20955592  0.43504649    -0.39500
O1122       O  0.96654925  0.15749186  0.47321666    -0.39400
O1123       O  0.63520879  0.19753819  0.57893270    -0.40100
O1124       O  0.64809391  0.25600588  0.58292504    -0.40200
C1125       C  0.84980182  0.27908947  0.53816140    -0.12500
C1126       C  0.87483649  0.27343591  0.51280490     0.04500
C1127       C  0.87436968  0.27744317  0.46664910    -0.07800
C1128       C  0.84641338  0.28317643  0.44692139    -0.08500
C1129       C  0.81941535  0.28609163  0.47253741    -0.03100
C1130       C  0.82274537  0.28579110  0.51902503     0.03800
N1131       N  0.79715192  0.28940301  0.54782396     0.66300
H1132       H  0.84988648  0.27641403  0.57338132     0.15200
H1133       H  0.84478094  0.28354158  0.41145289     0.14900
N1134       N  0.90005246  0.27281021  0.43921274     0.74000
O1135       O  0.77001477  0.26011796  0.56546986    -0.39500
O1136       O  0.80599061  0.32167115  0.56213265    -0.39400
O1137       O  0.88770646  0.24397882  0.41519379    -0.40100
O1138       O  0.93381673  0.29988567  0.43438025    -0.40200
C1139       C  0.90613769  0.17388854  0.41598010    -0.12500
C1140       C  0.88949725  0.15680079  0.45620081     0.04500
C1141       C  0.85731447  0.11990438  0.45660678    -0.07800
C1142       C  0.84062189  0.10217404  0.41699175    -0.08500
C1143       C  0.85483880  0.12104036  0.37668735    -0.03100
C1144       C  0.88910940  0.15674422  0.37638444     0.03800
N1145       N  0.90511371  0.17791851  0.33675017     0.66300
H1146       H  0.93081603  0.20227598  0.41509784     0.15200
H1147       H  0.81496406  0.07449286  0.41803063     0.14900
N1148       N  0.84046930  0.10059153  0.49691768     0.74000
O1149       O  0.89234265  0.19790393  0.32124008    -0.39500
O1150       O  0.93678554  0.18343752  0.32334496    -0.39400
O1151       O  0.81062897  0.09909315  0.51084299    -0.40100
O1152       O  0.85148172  0.07981948  0.51437564    -0.40200
O1153       O  0.94107987  0.73898599  0.67148893    -0.82000
C1154       C  0.90222711  0.68066990  0.50001196     0.97400
O1155       O  0.87909627  0.67712663  0.52977333    -0.71100
O1156       O  0.87897495  0.64916413  0.60668519    -0.74700
Al1157     Al  0.88475117  0.69613698  0.58766559     1.49000
C1158       C  0.89496576  0.64312529  0.63836062     0.92600
O1159       O  0.98609242  0.69748638  0.59576970    -0.80900
O1160       O  0.98718075  0.79447072  0.57229776    -0.74500
Al1161     Al  0.96215579  0.71861560  0.63167996     1.90100
O1162       O  0.00188801  0.73979289  0.54326040    -0.73600
O1163       O  0.92545479  0.76281685  0.52003523    -0.73400
O1164       O  0.93706694  0.70584252  0.50204089    -0.79100
O1165       O  0.88014332  0.73808003  0.56863292    -0.77300
O1166       O  0.93544953  0.72093343  0.58618685    -1.13400
O1167       O  0.88248240  0.71114038  0.64580055    -0.72600
C1168       C  0.90658171  0.73016858  0.67509147     0.98100
C1169       C  0.00453833  0.71335236  0.56092311     0.94500
Al1170     Al  0.96069717  0.74848368  0.53888607     1.55600
O1171       O  0.92667062  0.66888666  0.65173397    -0.77200
C1172       C  0.89463231  0.75794633  0.53468762     0.98700
C1173       C  0.00732740  0.79748377  0.60542355     0.93600
O1174       O  0.00386167  0.76854079  0.62462243    -0.82500
O1175       O  0.79518611  0.71510454  0.83185112    -0.82000
C1176       C  0.78664769  0.68149548  0.00750250     0.97400
O1177       O  0.78621427  0.66671414  0.97100653    -0.71100
O1178       O  0.78013620  0.65363579  0.88450948    -0.74700
Al1179     Al  0.81396885  0.69526467  0.92125295     1.49000
C1180       C  0.74648855  0.64096537  0.87163506     0.92600
O1181       O  0.71863451  0.71496940  0.90905355    -0.80900
O1182       O  0.79437362  0.79064546  0.92817570    -0.74500
Al1183     Al  0.75914252  0.71447613  0.87437141     1.90100
O1184       O  0.74286929  0.72733634  0.97510868    -0.73600
O1185       O  0.84857735  0.77926308  0.96139674    -0.73400
O1186       O  0.79434627  0.71585950  0.00904155    -0.79100
O1187       O  0.85524046  0.72981265  0.95746547    -0.77300
O1188       O  0.78893637  0.72029194  0.92002541    -1.13400
O1189       O  0.84337223  0.72251298  0.87215858    -0.72600
C1190       C  0.82970076  0.72316246  0.83518113     0.98100
C1191       C  0.71556707  0.71918674  0.94990785     0.94500
Al1192     Al  0.79451616  0.75074051  0.96446581     1.55600
O1193       O  0.73061712  0.66012685  0.87747958    -0.77200
C1194       C  0.86819601  0.76396546  0.96754374     0.98700
C1195       C  0.79153063  0.79377874  0.88699014     0.93600
O1196       O  0.78263546  0.76607984  0.86264020    -0.82500
O1197       O  0.70728999  0.91817941  0.83483797    -0.82000
C1198       C  0.71785690  0.89712074  0.65954324     0.97400
O1199       O  0.71790487  0.88211235  0.69588803    -0.71100
O1200       O  0.72342186  0.87323582  0.78174775    -0.74700
Al1201     Al  0.68971150  0.88157183  0.74498877     1.49000
C1202       C  0.75670904  0.89461072  0.79599100     0.92600
O1203       O  0.78496477  0.99693466  0.76125567    -0.80900
O1204       O  0.71401893  0.99905093  0.73832726    -0.74500
Al1205     Al  0.74361328  0.95510309  0.79420655     1.90100
O1206       O  0.76404991  0.98497367  0.69365531    -0.73600
O1207       O  0.65779525  0.93377993  0.70527376    -0.73400
O1208       O  0.71066551  0.92394197  0.65807657    -0.79100
O1209       O  0.64915229  0.87654734  0.70796645    -0.77900
O1210       O  0.71523777  0.93193388  0.74743925    -1.13400
O1211       O  0.65967410  0.87742572  0.79356639    -0.72600
C1212       C  0.67322147  0.89082575  0.83073683     0.98100
C1213       C  0.79046356  0.00339579  0.72027261     0.94500
Al1214     Al  0.71192359  0.95835282  0.70277563     1.55600
O1215       O  0.77218669  0.93003953  0.79193484    -0.77200
C1216       C  0.63764736  0.89889246  0.69739356     0.98700
C1217       C  0.71429088  0.00379665  0.77949151     0.93600
O1218       O  0.71932256  0.98268730  0.80512614    -0.82500
O1219       O  0.56357563  0.77955610  0.17103700    -0.82000
C1220       C  0.59928207  0.82175102  0.99309283     0.97400
O1221       O  0.62264932  0.83067390  0.02437837    -0.71100
O1222       O  0.62371525  0.86424229  0.09802288    -0.74700
Al1223     Al  0.61896610  0.81621229  0.08420263     1.49000
C1224       C  0.60676778  0.87147604  0.12742512     0.92600
O1225       O  0.51634352  0.81107512  0.08557685    -0.80900
O1226       O  0.51825549  0.71419313  0.08065470    -0.74500
Al1227     Al  0.54110886  0.79463307  0.12663577     1.90100
O1228       O  0.50085391  0.76410172  0.04029622    -0.73600
O1229       O  0.57854951  0.74194922  0.02676729    -0.73400
O1230       O  0.56511632  0.79497586  0.99667194    -0.79100
O1231       O  0.62640980  0.77466205  0.07017252    -0.77300
O1232       O  0.56823048  0.78940180  0.08377419    -1.13400
O1233       O  0.62189509  0.80501334  0.14411647    -0.72600
C1234       C  0.59800255  0.78838098  0.17479292     0.98100
C1235       C  0.49796308  0.79180253  0.05258721     0.94500
Al1236     Al  0.54291101  0.75662816  0.04039619     1.55600
O1237       O  0.57494354  0.84589313  0.14091732    -0.77200
C1238       C  0.61075411  0.75032162  0.04043236     0.98700
C1239       C  0.49834917  0.71343436  0.11291174     0.93600
O1240       O  0.50018103  0.74351237  0.12573924    -0.82500
O1241       O  0.70481966  0.78169515  0.32628302    -0.82000
C1242       C  0.71110853  0.81817071  0.49997984     0.97400
O1243       O  0.71038742  0.83130920  0.46257332    -0.71100
O1244       O  0.71717562  0.84261702  0.37644126    -0.74700
Al1245     Al  0.68389264  0.80083101  0.41418865     1.49000
C1246       C  0.75136052  0.85649248  0.36467222     0.92600
O1247       O  0.78191613  0.78518476  0.40490393    -0.80900
O1248       O  0.71035167  0.71059069  0.42910725    -0.74500
Al1249     Al  0.74073225  0.78352459  0.36983320     1.90100
O1250       O  0.75963104  0.77697935  0.47176075    -0.73600
O1251       O  0.65363265  0.71881874  0.46088091    -0.73400
O1252       O  0.70567762  0.78478429  0.50398988    -0.79100
O1253       O  0.64327895  0.76569354  0.45150792    -0.77300
O1254       O  0.71093011  0.77801274  0.41544882    -1.13400
O1255       O  0.65558796  0.77174871  0.36601032    -0.72600
C1256       C  0.67025076  0.77313564  0.32904888     0.98100
C1257       C  0.78650417  0.78458025  0.44611416     0.94500
Al1258     Al  0.70766333  0.75007254  0.46223872     1.55600
O1259       O  0.76794534  0.83792137  0.37059967    -0.77200
C1260       C  0.63256011  0.73270485  0.46540809     0.98700
C1261       C  0.71192830  0.70554108  0.38822039     0.93600
O1262       O  0.71795361  0.73138376  0.36138819    -0.82500
O1263       O  0.79615483  0.58049330  0.16697685    -0.82000
C1264       C  0.83130887  0.60379161  0.34118354     0.97400
O1265       O  0.84564324  0.61852444  0.30443144    -0.71100
O1266       O  0.85785675  0.62508970  0.21897981    -0.74700
Al1267     Al  0.81698737  0.61840123  0.25613721     1.49000
C1268       C  0.86931735  0.60331039  0.20651439     0.92600
O1269       O  0.79211423  0.50149710  0.24361531    -0.80900
O1270       O  0.71991816  0.50303254  0.26680619    -0.74500
Al1271     Al  0.79463535  0.54387804  0.20971796     1.90100
O1272       O  0.78389838  0.51417500  0.31077734    -0.73600
O1273       O  0.73338887  0.56891797  0.30035740    -0.73400
O1274       O  0.79676474  0.57714376  0.34418517    -0.79100
O1275       O  0.78347395  0.62556446  0.29408646    -0.77300
O1276       O  0.79070459  0.56808453  0.25578697    -1.13400
O1277       O  0.78995761  0.62147961  0.20717464    -0.72600
C1278       C  0.78950316  0.60763668  0.17003922     0.98100
C1279       C  0.79002487  0.49450972  0.28460021     0.94500
Al1280     Al  0.76093859  0.54285615  0.30147978     1.55600
O1281       O  0.84864445  0.56800613  0.21165881    -0.77200
C1282       C  0.74966136  0.60405352  0.30683919     0.98700
C1283       C  0.71587884  0.49838211  0.22562509     0.93600
O1284       O  0.74311163  0.51803608  0.20025549    -0.82500
C1285       C  0.72512003  0.65237615  0.39569070    -0.12500
C1286       C  0.71072211  0.67104121  0.37039083     0.04500
C1287       C  0.70361623  0.66186370  0.32516748    -0.07800
C1288       C  0.71340179  0.63703299  0.30596040    -0.08500
C1289       C  0.73030425  0.62083452  0.33050277    -0.03100
C1290       C  0.73528803  0.62774551  0.37607297     0.03800
N1291       N  0.75378118  0.61271539  0.40208148     0.66300
H1292       H  0.73148402  0.65926933  0.43007153     0.15200
H1293       H  0.71008753  0.63237441  0.27085170     0.14900
N1294       N  0.69054944  0.68071087  0.29685024     0.74000
O1295       O  0.78444587  0.63503215  0.42146654    -0.39500
O1296       O  0.73654259  0.57779087  0.41139837    -0.39400
O1297       O  0.70993006  0.69792892  0.26332173    -0.40100
O1298       O  0.65774407  0.67604049  0.30194659    -0.40200
C1299       C  0.78384097  0.92667488  0.36709393    -0.12500
C1300       C  0.77038789  0.89387710  0.34206988     0.04500
C1301       C  0.76785131  0.89654708  0.29606132    -0.07800
C1302       C  0.77679434  0.93131014  0.27622984    -0.08500
C1303       C  0.78830226  0.96384382  0.30154920    -0.03100
C1304       C  0.79330506  0.96150069  0.34739458     0.03800
N1305       N  0.80613116  0.99388523  0.37488445     0.66300
H1306       H  0.78542338  0.92491787  0.40247325     0.15200
H1307       H  0.77229977  0.93217879  0.24129049     0.14900
N1308       N  0.75376188  0.86357151  0.26940565     0.74000
O1309       O  0.78387872  0.99467944  0.40298767    -0.39500
O1310       O  0.84576376  0.51415361  0.37867324    -0.39400
O1311       O  0.72421801  0.85288546  0.24659615    -0.40100
O1312       O  0.77399573  0.84881503  0.26345086    -0.40200
C1313       C  0.62488847  0.90763016  0.19713895    -0.12500
C1314       C  0.62624159  0.90836414  0.15096006     0.04500
C1315       C  0.65078943  0.94303474  0.12983769    -0.07800
C1316       C  0.67565706  0.97466329  0.15473237    -0.08500
C1317       C  0.67800866  0.97237689  0.20063285    -0.03100
C1318       C  0.65106084  0.93881275  0.22214315     0.03800
N1319       N  0.65269961  0.93429476  0.26848463     0.66300
H1320       H  0.60563078  0.88159552  0.21383316     0.15200
H1321       H  0.69504103  0.00083084  0.13762949     0.14900
N1322       N  0.65055274  0.94689911  0.08330792     0.74000
O1323       O  0.62841381  0.93524057  0.29315070    -0.39500
O1324       O  0.67461052  0.92379427  0.28391807    -0.39400
O1325       O  0.61965331  0.93829065  0.06446845    -0.40100
O1326       O  0.68161345  0.96661624  0.06298327    -0.40200
C1327       C  0.93830586  0.64703395  0.20661537    -0.12500
C1328       C  0.90629804  0.62038339  0.18373411     0.04500
C1329       C  0.90835197  0.61858321  0.13759153    -0.07800
C1330       C  0.94128202  0.64570007  0.11498824    -0.08500
C1331       C  0.97196833  0.67476834  0.13791864    -0.03100
C1332       C  0.97088347  0.67402299  0.18428452     0.03800
N1333       N  0.49765849  0.70876294  0.20764354     0.66300
H1334       H  0.93682411  0.64905075  0.24191935     0.15200
H1335       H  0.94128394  0.64622572  0.07943343     0.14900
N1336       N  0.87560547  0.59264858  0.11299392     0.74000
O1337       O  0.49060442  0.73297663  0.22324575    -0.39500
O1338       O  0.52531295  0.70647265  0.22241913    -0.39400
O1339       O  0.86846351  0.55917648  0.10739772    -0.40100
O1340       O  0.85747153  0.60469961  0.09135086    -0.40200
C1341       C  0.61800568  0.77738042  0.29387521    -0.12500
C1342       C  0.64778416  0.76975347  0.28922460     0.04500
C1343       C  0.65673910  0.76305102  0.24660807    -0.07800
C1344       C  0.63859289  0.76782749  0.21029294    -0.08500
C1345       C  0.61151971  0.77886427  0.21499693    -0.03100
C1346       C  0.59993810  0.78207553  0.25747157     0.03800
N1347       N  0.57242366  0.79321779  0.26468193     0.66300
H1348       H  0.61014665  0.78229879  0.32603988     0.15200
H1349       H  0.64646775  0.76367379  0.17774117     0.14900
N1350       N  0.68279110  0.75011899  0.23881406     0.74000
O1351       O  0.54383803  0.77256718  0.28849880    -0.39500
O1352       O  0.58240814  0.82758139  0.25960755    -0.39400
O1353       O  0.67244127  0.72212659  0.21379636    -0.40100
O1354       O  0.71792044  0.77239419  0.24467310    -0.40200
C1355       C  0.60019771  0.82053730  0.91183222    -0.12500
C1356       C  0.61337300  0.84135463  0.95068424     0.04500
C1357       C  0.64320271  0.87933513  0.94852941    -0.07800
C1358       C  0.66097836  0.89515205  0.90873699    -0.08500
C1359       C  0.64995366  0.87372148  0.87040032    -0.03100
C1360       C  0.61839550  0.83619471  0.87173525     0.03800
N1361       N  0.60631244  0.81259708  0.83377004     0.66300
H1362       H  0.57741387  0.79114432  0.91301182     0.15200
H1363       H  0.68424599  0.92432188  0.90818411     0.14900
N1364       N  0.65463156  0.90307919  0.98600830     0.74000
O1365       O  0.62670359  0.80010093  0.81912209    -0.39500
O1366       O  0.57257130  0.79859680  0.82024633    -0.39400
O1367       O  0.68255538  0.90723667  0.00835023    -0.40100
O1368       O  0.64533147  0.92802688  0.98772191    -0.40200
C1369       C  0.71432907  0.89211362  0.57802776    -0.12500
C1370       C  0.72262139  0.88084013  0.61816433     0.04500
C1371       C  0.73028575  0.85074961  0.61823136    -0.07800
C1372       C  0.72686266  0.83123572  0.57934106    -0.08500
C1373       C  0.71670686  0.84130963  0.53967899    -0.03100
C1374       C  0.71101991  0.87265082  0.53916020     0.03800
N1375       N  0.69914736  0.88352147  0.50027174     0.66300
H1376       H  0.70812343  0.91486767  0.57703479     0.15200
H1377       H  0.73208310  0.80783803  0.58031266     0.14900
N1378       N  0.74133514  0.83935746  0.65741891     0.74000
O1379       O  0.66539624  0.86328991  0.48681174    -0.39500
O1380       O  0.72026085  0.91594455  0.48352986    -0.39400
O1381       O  0.72303139  0.80518560  0.67003657    -0.40100
O1382       O  0.77196704  0.86237161  0.67642165    -0.40200
C1383       C  0.77803269  0.60602408  0.08914235    -0.12500
C1384       C  0.78326346  0.62448869  0.12941723     0.04500
C1385       C  0.78476511  0.65982025  0.12936072    -0.07800
C1386       C  0.78357828  0.67673643  0.08960014    -0.08500
C1387       C  0.78108597  0.65950061  0.04906450    -0.03100
C1388       C  0.77680101  0.62290680  0.04940125     0.03800
N1389       N  0.77229820  0.60275415  0.00966899     0.66300
H1390       H  0.77581375  0.57853290  0.08819802     0.15200
H1391       H  0.78605022  0.70432829  0.09056296     0.14900
N1392       N  0.78951777  0.68004513  0.16908883     0.74000
O1393       O  0.80066974  0.60322234  0.99256759    -0.39500
O1394       O  0.73933337  0.58026661  0.99531306    -0.39400
O1395       O  0.82244708  0.70502034  0.18116386    -0.40100
O1396       O  0.76075603  0.67685222  0.18856152    -0.40200
C1397       C  0.67848069  0.71465092  0.01678749    -0.12500
C1398       C  0.68179230  0.71809376  0.97055999     0.04500
C1399       C  0.65744482  0.72730551  0.94763671    -0.07800
C1400       C  0.63215789  0.73457970  0.97120962    -0.08500
C1401       C  0.63158740  0.73434541  0.01753449    -0.03100
C1402       C  0.65431559  0.72323558  0.04019170     0.03800
N1403       N  0.65370703  0.72122098  0.08704289     0.66300
H1404       H  0.69634039  0.70707092  0.03537142     0.15200
H1405       H  0.61513686  0.74358949  0.95323723     0.14900
N1406       N  0.66063660  0.73321632  0.90114784     0.74000
O1407       O  0.62541895  0.69445323  0.10656603    -0.39500
O1408       O  0.68312982  0.74336281  0.10855839    -0.39400
O1409       O  0.63285424  0.71207546  0.87683485    -0.40100
O1410       O  0.68838588  0.76307349  0.88530200    -0.40200
C1411       C  0.93648584  0.78716663  0.96496580    -0.12500
C1412       C  0.90583079  0.78434227  0.98840213     0.04500
C1413       C  0.90947628  0.79120236  0.03400570    -0.07800
C1414       C  0.94248062  0.79729526  0.05593140    -0.08500
C1415       C  0.97175322  0.79658379  0.03279689    -0.03100
C1416       C  0.96934296  0.79346666  0.98654381     0.03800
N1417       N  0.99896965  0.79384941  0.96124614     0.66300
H1418       H  0.93380424  0.78169063  0.93002495     0.15200
H1419       H  0.94365049  0.79909064  0.09140988     0.14900
N1420       N  0.87818028  0.78742666  0.05910833     0.74000
O1421       O  0.99303762  0.76389905  0.94265132    -0.39500
O1422       O  0.52678153  0.82631548  0.94481402    -0.39400
O1423       O  0.86156588  0.76050469  0.08635761    -0.40100
O1424       O  0.87100901  0.81395953  0.05894227    -0.40200
C1425       C  0.71007794  0.57041262  0.86899743    -0.12500
C1426       C  0.72785762  0.60513810  0.84646512     0.04500
C1427       C  0.73481535  0.60546858  0.80094838    -0.07800
C1428       C  0.72578123  0.57162353  0.77948818    -0.08500
C1429       C  0.70995942  0.53706937  0.80247847    -0.03100
C1430       C  0.70058060  0.53648116  0.84744557     0.03800
N1431       N  0.68283632  0.50182788  0.87219450     0.66300
H1432       H  0.70496130  0.56982062  0.90395543     0.15200
H1433       H  0.73357734  0.57288642  0.74527971     0.14900
N1434       N  0.75363834  0.64037417  0.77669923     0.74000
O1435       O  0.69942135  0.49819417  0.90524330    -0.39500
O1436       O  0.65094936  0.97649666  0.86014196    -0.39400
O1437       O  0.78281443  0.64863057  0.75415958    -0.40100
O1438       O  0.73785092  0.65985314  0.77228078    -0.40200
C1439       C  0.78922465  0.85730373  0.79740847    -0.12500
C1440       C  0.77572235  0.87742851  0.82040095     0.04500
C1441       C  0.77423436  0.87509732  0.86674024    -0.07800
C1442       C  0.78324214  0.85036342  0.88891331    -0.08500
C1443       C  0.79439954  0.82815868  0.86565803    -0.03100
C1444       C  0.79947496  0.83361682  0.81944084     0.03800
N1445       N  0.81318799  0.81376218  0.79401472     0.66300
H1446       H  0.79070136  0.85905495  0.76192438     0.15200
H1447       H  0.77890745  0.84661176  0.92407974     0.14900
N1448       N  0.76058185  0.89529679  0.89144399     0.74000
O1449       O  0.79356427  0.79300034  0.76268104    -0.39500
O1450       O  0.84657188  0.82016133  0.79982263    -0.39400
O1451       O  0.73053267  0.87728899  0.91395115    -0.40100
O1452       O  0.78129558  0.93072524  0.89579644    -0.40200
C1453       C  0.84332219  0.57019158  0.72825393    -0.12500
C1454       C  0.82322657  0.53697770  0.70366357     0.04500
C1455       C  0.83199048  0.53812955  0.65842992    -0.07800
C1456       C  0.85707883  0.57279753  0.63800947    -0.08500
C1457       C  0.87492706  0.60639101  0.66197399    -0.03100
C1458       C  0.86907924  0.60477334  0.70784939     0.03800
N1459       N  0.88495249  0.63867256  0.73310973     0.66300
H1460       H  0.83654598  0.57009888  0.76264023     0.15200
H1461       H  0.86191956  0.57363892  0.60299541     0.14900
N1462       N  0.81620323  0.00294655  0.63026385     0.74000
O1463       O  0.86370357  0.65079271  0.74580976    -0.39500
O1464       O  0.91763032  0.65196426  0.74965042    -0.39400
O1465       O  0.79597670  0.00104710  0.59789718    -0.40100
O1466       O  0.82269915  0.97638794  0.63745761    -0.40200
C1467       C  0.53512032  0.83972424  0.66529160    -0.12500
C1468       C  0.53920140  0.83217466  0.62138207     0.04500
C1469       C  0.57500231  0.85317717  0.60080870    -0.07800
C1470       C  0.60655404  0.87916335  0.62546987    -0.08500
C1471       C  0.60301968  0.88398041  0.67047331    -0.03100
C1472       C  0.56670577  0.86560611  0.68992310     0.03800
N1473       N  0.56203544  0.87091892  0.73533323     0.66300
H1474       H  0.50769713  0.82333985  0.68140498     0.15200
H1475       H  0.63460643  0.89258990  0.61057165     0.14900
N1476       N  0.58079388  0.84487876  0.55692776     0.74000
O1477       O  0.57124217  0.90349397  0.74896541    -0.39500
O1478       O  0.54484653  0.84263899  0.76071079    -0.39400
O1479       O  0.09520595  0.87600845  0.53144791    -0.40100
O1480       O  0.57790706  0.81339347  0.54855526    -0.40200
C1481       C  0.90873182  0.73785685  0.75594970    -0.12500
C1482       C  0.89269709  0.73889655  0.71566756     0.04500
C1483       C  0.85891719  0.74045062  0.71556721    -0.07800
C1484       C  0.83976678  0.73676496  0.75498446    -0.08500
C1485       C  0.85363973  0.73175334  0.79510896    -0.03100
C1486       C  0.88937682  0.73363588  0.79548421     0.03800
N1487       N  0.90492435  0.72781895  0.83487113     0.66300
H1488       H  0.93454189  0.73645156  0.75659074     0.15200
H1489       H  0.81325455  0.73679506  0.75390082     0.14900
N1490       N  0.84340300  0.74517376  0.67550776     0.74000
O1491       O  0.89109056  0.69467690  0.85029330    -0.39500
O1492       O  0.93688161  0.75373053  0.84837262    -0.39400
O1493       O  0.80967040  0.72125407  0.66473993    -0.40100
O1494       O  0.86210587  0.77517377  0.65311863    -0.40200
C1495       C  0.56313701  0.70422610  0.46722502    -0.12500
C1496       C  0.59627022  0.71253583  0.48966318     0.04500
C1497       C  0.59578664  0.71142759  0.53604857    -0.07800
C1498       C  0.56343058  0.70592159  0.55903104    -0.08500
C1499       C  0.53144464  0.70113580  0.53624275    -0.03100
C1500       C  0.53067906  0.69789796  0.48998829     0.03800
N1501       N  0.99924934  0.69637724  0.46790221     0.66300
H1502       H  0.56326733  0.70509252  0.43165496     0.15200
H1503       H  0.56477091  0.70910002  0.59436441     0.14900
N1504       N  0.62945979  0.72059245  0.56005745     0.74000
O1505       O  0.00348530  0.72147909  0.44044115    -0.39500
O1506       O  0.96980949  0.66386704  0.46635508    -0.39400
O1507       O  0.63770403  0.69525450  0.56729438    -0.40100
O1508       O  0.64709644  0.75166027  0.58016705    -0.40200
C1509       C  0.85422601  0.78718539  0.53302347    -0.12500
C1510       C  0.87381257  0.77304775  0.50994224     0.04500
C1511       C  0.86878540  0.76851272  0.46390010    -0.07800
C1512       C  0.84297099  0.77635561  0.44249380    -0.08500
C1513       C  0.82162066  0.78839445  0.46608938    -0.03100
C1514       C  0.82869446  0.79523291  0.51174911     0.03800
N1515       N  0.80820166  0.80786568  0.53777068     0.66300
H1516       H  0.85775744  0.79079712  0.56820087     0.15200
H1517       H  0.83735672  0.76993796  0.40791334     0.14900
N1518       N  0.88578478  0.75134036  0.43931560     0.74000
O1519       O  0.78487806  0.78606086  0.56646382    -0.39500
O1520       O  0.81692008  0.84214021  0.53600849    -0.39400
O1521       O  0.86485258  0.71910520  0.42263465    -0.40100
O1522       O  0.92015090  0.77096049  0.42750421    -0.40200
C1523       C  0.90590414  0.67216028  0.42048830    -0.12500
C1524       C  0.88774288  0.65684630  0.46068066     0.04500
C1525       C  0.85395886  0.62112359  0.46145223    -0.07800
C1526       C  0.83772088  0.60273366  0.42208474    -0.08500
C1527       C  0.85391258  0.61985561  0.38153437    -0.03100
C1528       C  0.88933013  0.65433754  0.38106401     0.03800
N1529       N  0.90741618  0.67347450  0.34106789     0.66300
H1530       H  0.93166560  0.69973864  0.41924891     0.15200
H1531       H  0.81103179  0.57594846  0.42337301     0.14900
N1532       N  0.83491226  0.60383097  0.50172960     0.74000
O1533       O  0.89960687  0.69704557  0.32454490    -0.39500
O1534       O  0.93627841  0.67279743  0.32761729    -0.39400
O1535       O  0.80621595  0.60572410  0.51311896    -0.40100
O1536       O  0.84221012  0.58104056  0.52131134    -0.40200
loop_ 
_geom_bond_atom_site_label_1 
_geom_bond_atom_site_label_2 
_geom_bond_distance 
_geom_bond_site_symmetry_2 
_ccdc_geom_bond_type 
O1           C16   1.267       .  A
O1           Al9   1.911       .  S
C2           O12   1.263       .  A
C2            O3   1.263       .  A
C2          C372   1.472       .  S
O3           Al5   1.899       .  S
O4            C6   1.256       .  A
O4           Al5   1.902       .  S
Al5          O13   1.906       .  S
Al5          O15   1.900       .  S
Al5          O14   1.782       .  S
C6           O19   1.252       .  A
C6          C305   1.477       .  S
O7           C17   1.269       .  A
O7           Al9   1.941       .  S
O8           C21   1.267       .  A
O8          Al18   1.926       .  S
Al9          O22   1.889       .  S
Al9          O19   1.897       .  S
Al9          O14   1.794       .  S
O10          C17   1.260       .  A
O10         Al18   1.893       .  S
O11          C20   1.252       .  A
O11         Al18   1.899       .  S
O12         Al18   1.884       .  S
O13          C20   1.258       .  A
O14         Al18   1.792       .  S
O15          C16   1.265       .  A
C16         C330   1.481       .  S
C17        C1115   1.482       .  S
C20         C358   1.484       .  S
C21          O22   1.259       .  A
C21        C1084   1.469       .  S
O23          C38   1.277       .  A
O23         Al31   1.953       .  S
C24          O34   1.279       .  A
C24          O25   1.267   1_554  A
C24         C235   1.498       .  S
O25         Al27   1.892       .  S
O26          C28   1.258       .  A
O26         Al27   1.922       .  S
Al27         O35   1.909       .  S
Al27         O37   1.881       .  S
Al27         O36   1.779       .  S
C28          O41   1.260       .  A
C28         C274   1.484       .  S
O29          C39   1.273       .  A
O29         Al31   1.971       .  S
O30          C43   1.272       .  A
O30         Al40   1.969       .  S
Al31         O44   1.854       .  S
Al31         O41   1.920       .  S
Al31         O36   1.783       .  S
O32          C39   1.251       .  A
O32         Al40   1.848       .  S
O33          C42   1.256       .  A
O33         Al40   1.903       .  S
O34         Al40   1.963   1_554  S
O35          C42   1.258       .  A
O36         Al40   1.784       .  S
O37          C38   1.263       .  A
C38         C333   1.489       .  S
C39         C246   1.497       .  S
C42         C260   1.471       .  S
C43          O44   1.250       .  A
C43         C291   1.496       .  S
O45          C60   1.273       .  A
O45         Al53   1.926       .  S
C46          O56   1.274       .  A
C46          O47   1.263       .  A
C46         C218   1.490       .  S
O47         Al49   1.883       .  S
O48          C50   1.262       .  A
O48         Al49   1.932       .  S
Al49         O57   1.925       .  S
Al49         O59   1.875       .  S
Al49         O58   1.779       .  S
C50          O63   1.259       .  A
C50         C288   1.483       .  S
O51          C61   1.271       .  A
O51         Al53   1.956       .  S
O52          C65   1.270       .  A
O52         Al62   1.961       .  S
Al53         O66   1.876       .  S
Al53         O63   1.908       .  S
Al53         O58   1.780       .  S
O54          C61   1.252       .  A
O54         Al62   1.851       .  S
O55          C64   1.259       .  A
O55         Al62   1.906       .  S
O56         Al62   1.951       .  S
O57          C64   1.263       .  A
O58         Al62   1.780       .  S
O59          C60   1.261       .  A
C60         C207   1.472       .  S
C61         C686   1.484       .  S
C64         C319   1.472       .  S
C65          O66   1.253       .  A
C65         C661   1.497       .  S
O67          C82   1.265       .  A
O67         Al75   1.900       .  S
C68          O78   1.265       .  A
C68          O69   1.265   1_556  A
C68         C204   1.471       .  S
O69         Al71   1.896       .  S
O70          C72   1.259       .  A
O70         Al71   1.927       .  S
Al71         O79   1.927       .  S
Al71         O81   1.899       .  S
Al71         O80   1.783       .  S
C72          O85   1.250       .  A
C72         C162   1.490       .  S
O73          C83   1.266   1_455  A
O73         Al75   1.926       .  S
O74          C87   1.266   1_455  A
O74         Al84   1.931       .  S
Al75         O88   1.900   1_455  S
Al75         O85   1.886       .  S
Al75         O80   1.797       .  S
O76          C83   1.260   1_455  A
O76         Al84   1.892       .  S
O77          C86   1.249       .  A
O77         Al84   1.885       .  S
O78         Al84   1.893   1_556  S
O79          C86   1.260       .  A
O80         Al84   1.797       .  S
O81          C82   1.267       .  A
C82         C193   1.471       .  S
C83        C1031   1.475       .  S
C86         C249   1.489       .  S
C87          O88   1.261       .  A
C87         C947   1.482       .  S
O89         C104   1.271       .  A
O89         Al97   1.947       .  S
C90         O100   1.274       .  A
C90          O91   1.263       .  A
C90         C221   1.487       .  S
O91         Al93   1.886       .  S
O92          C94   1.261       .  A
O92         Al93   1.925       .  S
Al93        O101   1.915       .  S
Al93        O103   1.881       .  S
Al93        O102   1.773       .  S
C94         O107   1.263       .  A
C94         C148   1.482       .  S
O95         C105   1.272       .  A
O95         Al97   1.966       .  S
O96         C109   1.272       .  A
O96        Al106   1.964       .  S
Al97        O110   1.868       .  S
Al97        O107   1.919       .  S
Al97        O102   1.785       .  S
O98         C105   1.250       .  A
O98        Al106   1.849       .  S
O99         C108   1.258       .  A
O99        Al106   1.905       .  S
O100       Al106   1.948       .  S
O101        C108   1.260       .  A
O102       Al106   1.783       .  S
O103        C104   1.264       .  A
C104        C190   1.484       .  S
C105        C361   1.492       .  S
C108        C344   1.473       .  S
C109        O110   1.254       .  A
C109        C134   1.495       .  S
O111        C126   1.276       .  A
O111       Al119   1.954       .  S
C112        O122   1.272       .  A
C112        O113   1.262       .  A
C112        C375   1.479       .  S
O113       Al115   1.877       .  S
O114        C116   1.261       .  A
O114       Al115   1.916       .  S
Al115       O123   1.928       .  S
Al115       O125   1.898       .  S
Al115       O124   1.774       .  S
C116        O129   1.257       .  A
C116        C176   1.471       .  S
O117        C127   1.272   1_545  A
O117       Al119   1.966       .  S
O118        C131   1.269   1_545  A
O118       Al128   1.957       .  S
Al119       O132   1.834       .  S
Al119       O129   1.900       .  S
Al119       O124   1.779       .  S
O120        C127   1.251   1_545  A
O120       Al128   1.860       .  S
O121        C130   1.259       .  A
O121       Al128   1.906       .  S
O122       Al128   1.932       .  S
O123        C130   1.261       .  A
O124       Al128   1.785       .  S
O125        C126   1.266       .  A
C126        C232   1.497       .  S
C127        C535   1.494       .  S
C130        C137   1.477       .  S
C131        O132   1.250   1_565  A
C131        C549   1.484       .  S
C133        C134   1.404       .  A
C133        C138   1.408       .  A
C133        H140   1.084       .  S
C134        C135   1.421       .  A
C135        C136   1.402       .  A
C135        N142   1.426       .  S
C136        C137   1.391       .  A
C136        H141   1.084       .  S
C137        C138   1.413       .  A
C138        N139   1.429       .  S
N139        O143   1.262       .  A
N139        O144   1.262       .  A
N142        O146   1.262       .  A
N142        O145   1.261       .  A
C147        C148   1.397       .  A
C147        C152   1.404       .  A
C147        H154   1.084       .  S
C148        C149   1.414       .  A
C149        C150   1.410       .  A
C149        N156   1.429       .  S
C150        C151   1.405       .  A
C150        H155   1.084       .  S
C151        C511   1.497       .  S
C151        C152   1.422       .  A
C152        N153   1.430       .  S
N153        O157   1.262       .  A
N153        O542   1.262       .  A
N156        O160   1.262       .  A
N156        O159   1.262       .  A
O158        N537   1.262   1_545  A
C161        C162   1.408       .  A
C161        C166   1.406       .  A
C161        H168   1.075       .  S
C162        C163   1.405       .  A
C163        C164   1.398       .  A
C163        N170   1.426       .  S
C164        C165   1.407       .  A
C164        H169   1.084       .  S
C165        C515   1.484       .  S
C165        C166   1.407       .  A
C166        N167   1.429       .  S
N167        O171   1.262       .  A
N167        O172   1.262       .  A
N170        O174   1.263       .  A
N170        O173   1.262       .  A
C175        C176   1.392       .  A
C175        C180   1.393       .  A
C175        H182   1.084       .  S
C176        C177   1.413       .  A
C177        C178   1.409       .  A
C177        N184   1.428       .  S
C178        C179   1.403       .  A
C178        H183   1.084       .  S
C179        C855   1.481       .  S
C179        C180   1.414       .  A
C180        N949   1.424       .  S
N181        C948   1.425       .  S
N181        O185   1.262       .  A
N181        O186   1.261   1_655  A
N184        O188   1.262       .  A
N184        O187   1.262       .  A
C189        C190   1.408       .  A
C189        C194   1.396       .  A
C189        H196   1.084       .  S
C190        C191   1.416       .  A
C191        C192   1.398       .  A
C191        N198   1.430       .  S
C192        C193   1.398       .  A
C192        H197   1.085       .  S
C193        C194   1.408       .  A
C194        N195   1.428       .  S
N195        O199   1.261       .  A
N195        O200   1.259       .  A
N198        O202   1.261       .  A
N198        O201   1.263       .  A
C203        C204   1.402       .  A
C203        C208   1.401       .  A
C203        H210   1.084       .  S
C204        C205   1.406       .  A
C205        C206   1.389       .  A
C205        N212   1.422       .  S
C206        C207   1.397       .  A
C206        H211   1.084       .  S
C207        C208   1.416       .  A
C208        N209   1.430       .  S
N209        O213   1.262       .  A
N209        O214   1.262       .  A
N212        O216   1.260       .  A
N212        O215   1.262   1_556  A
C217        C218   1.405       .  A
C217        C222   1.401       .  A
C217        H224   1.084       .  S
C218        C219   1.418       .  A
C219        C220   1.402       .  A
C219        N226   1.432       .  S
C220        C221   1.403       .  A
C220        H225   1.083       .  S
C221        C222   1.417       .  A
C222        N223   1.431       .  S
N223        O227   1.262       .  A
N223        O228   1.262       .  A
N226        O230   1.262       .  A
N226        O229   1.262       .  A
C231        C232   1.405       .  A
C231        C236   1.403       .  A
C231        H238   1.084       .  S
C232        C233   1.417       .  A
C233        C234   1.405       .  A
C233        N240   1.429       .  S
C234        C235   1.406       .  A
C234        H239   1.083       .  S
C235        C236   1.418       .  A
C236        N237   1.429       .  S
N237        O241   1.262   1_554  A
N237        O242   1.262   1_554  A
N240        O244   1.262       .  A
N240        O243   1.262       .  A
C245        C246   1.415   1_554  A
C245        C250   1.403       .  A
C245        H252   1.084       .  S
C246        C247   1.412       .  A
C247        C248   1.411       .  A
C247        N254   1.431       .  S
C248        C249   1.412   1_556  A
C248        H253   1.084       .  S
C249        C250   1.403       .  A
C250        N251   1.429       .  S
N251        O255   1.262       .  A
N251        O256   1.262       .  A
N254        O258   1.263       .  A
N254        O257   1.262       .  A
C259        C260   1.395       .  A
C259        C264   1.395       .  A
C259        H266   1.084       .  S
C260        C261   1.413   1_556  A
C261        C262   1.407       .  A
C261        N268   1.429       .  S
C262        C263   1.402       .  A
C262        H267   1.084       .  S
C263        C851   1.478       .  S
C263        C264   1.415   1_554  A
C264        N265   1.429       .  S
N265        O269   1.262       .  A
N265       O1038   1.261       .  A
N268        O272   1.262       .  A
N268        O271   1.262       .  A
O270       N1033   1.261   1_455  A
C273        C274   1.399       .  A
C273        C278   1.407       .  A
C273        H280   1.084       .  S
C274        C275   1.415       .  A
C275        C276   1.407       .  A
C275        N282   1.431       .  S
C276        C277   1.403       .  A
C276        H281   1.084       .  S
C277        C449   1.496       .  S
C277        C278   1.421       .  A
C278        N279   1.430       .  S
N279        O283   1.262   1_545  A
N279        O668   1.262   1_545  A
N282        O286   1.262       .  A
N282        O285   1.262       .  A
O284        N663   1.262       .  A
C287        C288   1.396       .  A
C287        C292   1.404       .  A
C287        H294   1.083       .  S
C288        C289   1.414       .  A
C289        C290   1.410       .  A
C289        N296   1.429       .  S
C290        C291   1.404       .  A
C290        H295   1.084       .  S
C291        C292   1.423       .  A
C292        N293   1.432       .  S
N293        O297   1.262       .  A
N293        O298   1.262       .  A
N296        O300   1.262       .  A
N296        O299   1.262       .  A
C301        C302   1.402       .  A
C301        C306   1.404       .  A
C301        H308   1.084       .  S
C302        C445   1.484       .  S
C302        C303   1.419       .  A
C303        C304   1.399       .  A
C303        N694   1.432       .  S
C304        C305   1.397       .  A
C304        H309   1.083       .  S
C305        C306   1.414       .  A
C306        N307   1.428       .  S
N307        O311   1.262       .  A
N307        O312   1.262       .  A
N310        C687   1.432       .  S
N310        O314   1.262       .  A
N310        O313   1.262       .  A
C315        C316   1.405       .  A
C315        C320   1.403       .  A
C315        H322   1.084       .  S
C316        C789   1.468       .  S
C316        C317   1.408       .  A
C317        C318   1.403       .  A
C317        N324   1.432       .  S
C318        C319   1.405       .  A
C318        H323   1.084       .  S
C319        C320   1.406       .  A
C320        N321   1.432       .  S
N321        O325   1.262       .  A
N321        O326   1.262       .  A
N324        O328   1.262       .  A
N324       O1095   1.262       .  A
O327       N1092   1.262       .  A
C329        C330   1.400       .  A
C329        C334   1.402       .  A
C329        H336   1.084       .  S
C330        C331   1.412       .  A
C331        C332   1.399       .  A
C331        N338   1.431       .  S
C332        C333   1.404       .  A
C332        H337   1.083       .  S
C333        C334   1.421       .  A
C334        N335   1.431       .  S
N335        O339   1.262       .  A
N335        O340   1.262       .  A
N338        O342   1.262       .  A
N338        O341   1.262       .  A
C343        C344   1.394       .  A
C343        C348   1.398       .  A
C343        H350   1.084       .  S
C344        C345   1.414       .  A
C345        C346   1.408       .  A
C345        N352   1.429       .  S
C346        C347   1.401       .  A
C346        H351   1.084       .  S
C347        C785   1.480       .  S
C347        C348   1.416       .  A
C348       N1117   1.429   1_455  S
N349       C1116   1.428       .  S
N349        O353   1.262       .  A
N349        O354   1.261       .  A
N352        O356   1.262       .  A
N352        O355   1.262       .  A
C357        C358   1.396       .  A
C357        C362   1.399       .  A
C357        H364   1.083       .  S
C358        C359   1.418       .  A
C359        C360   1.408       .  A
C359        N366   1.430       .  S
C360        C361   1.403       .  A
C360        H365   1.084       .  S
C361        C362   1.422       .  A
C362        N363   1.431       .  S
N363        O367   1.262       .  A
N363        O368   1.262       .  A
N366        O370   1.262       .  A
N366        O369   1.262       .  A
C371        C372   1.400       .  A
C371        C376   1.394       .  A
C371        H378   1.083       .  S
C372        C373   1.410       .  A
C373        C374   1.396       .  A
C373        N380   1.429       .  S
C374        C375   1.405       .  A
C374        H379   1.084       .  S
C375        C376   1.416       .  A
C376        N377   1.430       .  S
N377        O381   1.262       .  A
N377        O382   1.262       .  A
N380        O384   1.261       .  A
N380        O383   1.262       .  A
O385        C400   1.269       .  A
O385       Al393   1.915       .  S
C386        O396   1.262       .  A
C386        O387   1.262       .  A
C386        C756   1.474       .  S
O387       Al389   1.899       .  S
O388        C390   1.255       .  A
O388       Al389   1.901       .  S
Al389       O397   1.893       .  S
Al389       O399   1.903       .  S
Al389       O398   1.780       .  S
C390        O403   1.251       .  A
C390        C689   1.478       .  S
O391        C401   1.271       .  A
O391       Al393   1.939       .  S
O392        C405   1.265       .  A
O392       Al402   1.925       .  S
Al393       O406   1.887       .  S
Al393       O403   1.898       .  S
Al393       O398   1.795       .  S
O394        C401   1.261       .  A
O394       Al402   1.893       .  S
O395        C404   1.253       .  A
O395       Al402   1.899       .  S
O396       Al402   1.887       .  S
O397        C404   1.257       .  A
O398       Al402   1.794       .  S
O399        C400   1.266       .  A
C400        C714   1.482       .  S
C401       C1499   1.481       .  S
C404        C742   1.484       .  S
C405        O406   1.257       .  A
C405       C1468   1.469       .  S
O407        C422   1.278       .  A
O407       Al415   1.955       .  S
C408        O418   1.277       .  A
C408        O409   1.267   1_554  A
C408        C619   1.496       .  S
O409       Al411   1.893       .  S
O410        C412   1.259       .  A
O410       Al411   1.923       .  S
Al411       O419   1.910       .  S
Al411       O421   1.878       .  S
Al411       O420   1.778       .  S
C412        O425   1.261       .  A
C412        C658   1.485       .  S
O413        C423   1.275       .  A
O413       Al415   1.976       .  S
O414        C427   1.270       .  A
O414       Al424   1.961       .  S
Al415       O428   1.861       .  S
Al415       O425   1.921       .  S
Al415       O420   1.782       .  S
O416        C423   1.251       .  A
O416       Al424   1.841       .  S
O417        C426   1.256       .  A
O417       Al424   1.899       .  S
O418       Al424   1.957   1_554  S
O419        C426   1.259       .  A
O420       Al424   1.783       .  S
O421        C422   1.262       .  A
C422        C717   1.489       .  S
C423        C630   1.494       .  S
C426        C644   1.467       .  S
C427        O428   1.251       .  A
C427        C675   1.495       .  S
O429        C444   1.273       .  A
O429       Al437   1.927       .  S
C430        O440   1.273       .  A
C430        O431   1.263       .  A
C430        C602   1.486       .  S
O431       Al433   1.879       .  S
O432        C434   1.262       .  A
O432       Al433   1.931       .  S
Al433       O441   1.922       .  S
Al433       O443   1.879       .  S
Al433       O442   1.778       .  S
C434        O447   1.259       .  A
C434        C672   1.481       .  S
O435        C445   1.270   1_565  A
O435       Al437   1.955       .  S
O436        C449   1.270       .  A
O436       Al446   1.959   1_545  S
Al437       O450   1.876       .  S
Al437       O447   1.908       .  S
Al437       O442   1.780       .  S
O438        C445   1.252   1_565  A
O438       Al446   1.853       .  S
O439        C448   1.259       .  A
O439       Al446   1.906       .  S
O440       Al446   1.948       .  S
O441        C448   1.263       .  A
O442       Al446   1.781       .  S
O443        C444   1.261       .  A
C444        C591   1.475       .  S
C448        C703   1.472       .  S
C449        O450   1.253   1_545  A
O451        C466   1.266       .  A
O451       Al459   1.900       .  S
C452        O462   1.266       .  A
C452        O453   1.266   1_556  A
C452        C588   1.474       .  S
O453       Al455   1.900       .  S
O454        C456   1.258       .  A
O454       Al455   1.926       .  S
Al455       O463   1.924       .  S
Al455       O465   1.904       .  S
Al455       O464   1.785       .  S
C456        O469   1.250       .  A
C456        C546   1.489       .  S
O457        C467   1.267   1_455  A
O457       Al459   1.933       .  S
O458        C471   1.268   1_455  A
O458       Al468   1.933       .  S
Al459       O472   1.899       .  S
Al459       O469   1.887       .  S
Al459       O464   1.796       .  S
O460        C467   1.258   1_455  A
O460       Al468   1.889       .  S
O461        C470   1.248       .  A
O461       Al468   1.881       .  S
O462       Al468   1.896   1_556  S
O463        C470   1.259       .  A
O464       Al468   1.797       .  S
O465        C466   1.268       .  A
C466        C577   1.477       .  S
C467       C1415   1.478       .  S
C470        C633   1.487       .  S
C471        O472   1.261   1_655  A
C471       C1331   1.481       .  S
O473        C488   1.267       .  A
O473       Al481   1.934       .  S
C474        O484   1.271       .  A
C474        O475   1.263       .  A
C474        C605   1.483       .  S
O475       Al477   1.890       .  S
O476        C478   1.263       .  A
O476       Al477   1.929       .  S
Al477       O485   1.916       .  S
Al477       O487   1.878       .  S
Al477       O486   1.766       .  S
C478        O491   1.265       .  A
C478        C532   1.483       .  S
O479        C489   1.272       .  A
O479       Al481   1.969       .  S
O480        C493   1.272       .  A
O480       Al490   1.962       .  S
Al481       O494   1.876       .  S
Al481       O491   1.923       .  S
Al481       O486   1.784       .  S
O482        C489   1.249       .  A
O482       Al490   1.849       .  S
O483        C492   1.260       .  A
O483       Al490   1.905       .  S
O484       Al490   1.936       .  S
O485        C492   1.262       .  A
O486       Al490   1.777       .  S
O487        C488   1.263       .  A
C488        C574   1.479       .  S
C489        C745   1.494       .  S
C492        C728   1.474       .  S
C493        O494   1.254       .  A
C493        C518   1.481       .  S
O495        C510   1.279       .  A
O495       Al503   1.957       .  S
C496        O506   1.278       .  A
C496        O497   1.264       .  A
C496        C759   1.481       .  S
O497       Al499   1.875       .  S
O498        C500   1.257       .  A
O498       Al499   1.905       .  S
Al499       O507   1.926       .  S
Al499       O509   1.895       .  S
Al499       O508   1.778       .  S
C500        O513   1.256       .  A
C500        C560   1.471       .  S
O501        C511   1.270       .  A
O501       Al503   1.959       .  S
O502        C515   1.269       .  A
O502       Al512   1.951       .  S
Al503       O516   1.836       .  S
Al503       O513   1.907       .  S
Al503       O508   1.782       .  S
O504        C511   1.252       .  A
O504       Al512   1.863       .  S
O505        C514   1.258       .  A
O505       Al512   1.920       .  S
O506       Al512   1.949       .  S
O507        C514   1.258       .  A
O508       Al512   1.785       .  S
O509        C510   1.269       .  A
C510        C616   1.495       .  S
C514        C521   1.487       .  S
C515        O516   1.251       .  A
C517        C518   1.396       .  A
C517        C522   1.400       .  A
C517        H524   1.085       .  S
C518        C519   1.417       .  A
C519        C520   1.412       .  A
C519        N526   1.432       .  S
C520        C521   1.402       .  A
C520        H525   1.083       .  S
C521        C522   1.414       .  A
C522        N523   1.424       .  S
N523        O527   1.261       .  A
N523        O528   1.261       .  A
N526        O530   1.262       .  A
N526        O529   1.262       .  A
C531        C532   1.398       .  A
C531        C536   1.405       .  A
C531        H538   1.084       .  S
C532        C533   1.412       .  A
C533        C534   1.407       .  A
C533        N540   1.426       .  S
C534        C535   1.402       .  A
C534        H539   1.084       .  S
C535        C536   1.422       .  A
C536        N537   1.430       .  S
N537        O541   1.262       .  A
N540        O544   1.261       .  A
N540        O543   1.262       .  A
C545        C546   1.406       .  A
C545        C550   1.403       .  A
C545        H552   1.093       .  S
C546        C547   1.405       .  A
C547        C548   1.397       .  A
C547        N554   1.424       .  S
C548        C549   1.407       .  A
C548        H553   1.087       .  S
C549        C550   1.406       .  A
C550        N551   1.428       .  S
N551        O555   1.262       .  A
N551        O556   1.262       .  A
N554        O558   1.263       .  A
N554        O557   1.262       .  A
C559        C560   1.394       .  A
C559        C564   1.394       .  A
C559        H566   1.084       .  S
C560        C561   1.413       .  A
C561        C562   1.410       .  A
C561        N568   1.428       .  S
C562        C563   1.404       .  A
C562        H567   1.084       .  S
C563       C1239   1.482       .  S
C563        C564   1.413       .  A
C564       N1333   1.425       .  S
N565       C1332   1.425   1_455  S
N565        O569   1.261   1_455  A
N565        O570   1.261       .  A
N568        O572   1.262       .  A
N568        O571   1.262       .  A
C573        C574   1.403       .  A
C573        C578   1.393       .  A
C573        H580   1.084       .  S
C574        C575   1.414       .  A
C575        C576   1.401       .  A
C575        N582   1.433       .  S
C576        C577   1.405       .  A
C576        H581   1.084       .  S
C577        C578   1.413       .  A
C578        N579   1.432       .  S
N579        O583   1.262       .  A
N579        O584   1.259       .  A
N582        O586   1.261       .  A
N582        O585   1.262       .  A
C587        C588   1.403       .  A
C587        C592   1.402       .  A
C587        H594   1.084       .  S
C588        C589   1.406       .  A
C589        C590   1.389       .  A
C589        N596   1.422       .  S
C590        C591   1.397       .  A
C590        H595   1.084       .  S
C591        C592   1.417       .  A
C592        N593   1.431       .  S
N593        O597   1.262       .  A
N593        O598   1.262       .  A
N596        O600   1.260       .  A
N596        O599   1.262   1_556  A
C601        C602   1.404       .  A
C601        C606   1.402       .  A
C601        H608   1.084       .  S
C602        C603   1.417       .  A
C603        C604   1.401       .  A
C603        N610   1.435       .  S
C604        C605   1.403       .  A
C604        H609   1.083       .  S
C605        C606   1.415       .  A
C606        N607   1.432       .  S
N607        O611   1.262       .  A
N607        O612   1.262       .  A
N610        O614   1.263       .  A
N610        O613   1.262       .  A
C615        C616   1.406       .  A
C615        C620   1.403       .  A
C615        H622   1.084       .  S
C616        C617   1.417       .  A
C617        C618   1.403       .  A
C617        N624   1.429       .  S
C618        C619   1.406       .  A
C618        H623   1.083       .  S
C619        C620   1.417       .  A
C620        N621   1.429       .  S
N621        O625   1.262   1_554  A
N621        O626   1.262   1_554  A
N624        O628   1.262       .  A
N624        O627   1.262       .  A
C629        C630   1.415   1_554  A
C629        C634   1.401       .  A
C629        H636   1.084       .  S
C630        C631   1.412       .  A
C631        C632   1.411       .  A
C631        N638   1.431       .  S
C632        C633   1.412   1_556  A
C632        H637   1.084       .  S
C633        C634   1.402       .  A
C634        N635   1.429       .  S
N635        O639   1.262       .  A
N635        O640   1.262       .  A
N638        O642   1.262       .  A
N638        O641   1.262       .  A
C643        C644   1.394       .  A
C643        C648   1.394       .  A
C643        H650   1.083       .  S
C644        C645   1.412   1_556  A
C645        C646   1.406       .  A
C645        N652   1.429       .  S
C646        C647   1.401       .  A
C646        H651   1.084       .  S
C647       C1235   1.475       .  S
C647        C648   1.415   1_554  A
C648        N649   1.429       .  S
N649        O653   1.262       .  A
N649       O1422   1.261       .  A
N652        O656   1.262       .  A
N652        O655   1.262       .  A
O654       N1417   1.261   1_455  A
C657        C658   1.399       .  A
C657        C662   1.408       .  A
C657        H664   1.084       .  S
C658        C659   1.415       .  A
C659        C660   1.408       .  A
C659        N666   1.431       .  S
C660        C661   1.403       .  A
C660        H665   1.084       .  S
C661        C662   1.421       .  A
C662        N663   1.431       .  S
N663        O667   1.262       .  A
N666        O670   1.262       .  A
N666        O669   1.262       .  A
C671        C672   1.397       .  A
C671        C676   1.404       .  A
C671        H678   1.083       .  S
C672        C673   1.414       .  A
C673        C674   1.408       .  A
C673        N680   1.430       .  S
C674        C675   1.404       .  A
C674        H679   1.084       .  S
C675        C676   1.422       .  A
C676        N677   1.432       .  S
N677        O681   1.262       .  A
N677        O682   1.262       .  A
N680        O684   1.262       .  A
N680        O683   1.262       .  A
C685        C686   1.401       .  A
C685        C690   1.404       .  A
C685        H692   1.084       .  S
C686        C687   1.420       .  A
C687        C688   1.399       .  A
C688        C689   1.397       .  A
C688        H693   1.083       .  S
C689        C690   1.415       .  A
C690        N691   1.428       .  S
N691        O695   1.262       .  A
N691        O696   1.262       .  A
N694        O698   1.262   1_545  A
N694        O697   1.262       .  A
C699        C700   1.405       .  A
C699        C704   1.402       .  A
C699        H706   1.085       .  S
C700       C1173   1.469       .  S
C700        C701   1.410       .  A
C701        C702   1.405       .  A
C701        N708   1.434       .  S
C702        C703   1.405       .  A
C702        H707   1.084       .  S
C703        C704   1.405       .  A
C704        N705   1.431       .  S
N705        O709   1.262       .  A
N705        O710   1.262       .  A
N708        O712   1.262       .  A
N708       O1479   1.262       .  A
O711       N1476   1.262       .  A
C713        C714   1.400       .  A
C713        C718   1.403       .  A
C713        H720   1.084       .  S
C714        C715   1.411       .  A
C715        C716   1.398       .  A
C715        N722   1.427       .  S
C716        C717   1.402       .  A
C716        H721   1.084       .  S
C717        C718   1.422       .  A
C718        N719   1.430       .  S
N719        O723   1.262       .  A
N719        O724   1.262       .  A
N722        O726   1.261       .  A
N722        O725   1.262       .  A
C727        C728   1.393       .  A
C727        C732   1.396       .  A
C727        H734   1.085       .  S
C728        C729   1.414       .  A
C729        C730   1.410       .  A
C729        N736   1.428       .  S
C730        C731   1.403       .  A
C730        H735   1.084       .  S
C731       C1169   1.484       .  S
C731        C732   1.416       .  A
C732       N1501   1.427   1_455  S
N733       C1500   1.429       .  S
N733        O737   1.263       .  A
N733        O738   1.261       .  A
N736        O740   1.262       .  A
N736        O739   1.262       .  A
C741        C742   1.393       .  A
C741        C746   1.392       .  A
C741        H748   1.078       .  S
C742        C743   1.416       .  A
C743        C744   1.410       .  A
C743        N750   1.429       .  S
C744        C745   1.406       .  A
C744        H749   1.083       .  S
C745        C746   1.424       .  A
C746        N747   1.431       .  S
N747        O751   1.263       .  A
N747        O752   1.261       .  A
N750        O754   1.262       .  A
N750        O753   1.262       .  A
C755        C756   1.400       .  A
C755        C760   1.395       .  A
C755        H762   1.084       .  S
C756        C757   1.410       .  A
C757        C758   1.399       .  A
C757        N764   1.429       .  S
C758        C759   1.404       .  A
C758        H763   1.084       .  S
C759        C760   1.419       .  A
C760        N761   1.431       .  S
N761        O765   1.262       .  A
N761        O766   1.262       .  A
N764        O768   1.261       .  A
N764        O767   1.262       .  A
O769        C784   1.268       .  A
O769       Al777   1.914       .  S
C770        O780   1.262       .  A
C770        O771   1.262       .  A
C770       C1140   1.474       .  S
O771       Al773   1.900       .  S
O772        C774   1.256       .  A
O772       Al773   1.902       .  S
Al773       O781   1.896       .  S
Al773       O783   1.904       .  S
Al773       O782   1.780       .  S
C774        O787   1.251       .  A
C774       C1073   1.478       .  S
O775        C785   1.270   1_655  A
O775       Al777   1.938       .  S
O776        C789   1.265   1_655  A
O776       Al786   1.924       .  S
Al777       O790   1.886   1_655  S
Al777       O787   1.897       .  S
Al777       O782   1.795       .  S
O778        C785   1.261       .  A
O778       Al786   1.894   1_455  S
O779        C788   1.253       .  A
O779       Al786   1.900       .  S
O780       Al786   1.886       .  S
O781        C788   1.258       .  A
O782       Al786   1.794       .  S
O783        C784   1.266       .  A
C784       C1098   1.482       .  S
C788       C1126   1.484       .  S
C789        O790   1.257       .  A
O791        C806   1.278       .  A
O791       Al799   1.954       .  S
C792        O802   1.277       .  A
C792        O793   1.267   1_554  A
C792       C1003   1.496       .  S
O793       Al795   1.894       .  S
O794        C796   1.258       .  A
O794       Al795   1.922       .  S
Al795       O803   1.909       .  S
Al795       O805   1.879       .  S
Al795       O804   1.779       .  S
C796        O809   1.260       .  A
C796       C1042   1.486       .  S
O797        C807   1.274       .  A
O797       Al799   1.974       .  S
O798        C811   1.270       .  A
O798       Al808   1.960       .  S
Al799       O812   1.860       .  S
Al799       O809   1.921       .  S
Al799       O804   1.782       .  S
O800        C807   1.251       .  A
O800       Al808   1.841       .  S
O801        C810   1.255       .  A
O801       Al808   1.899       .  S
O802       Al808   1.957   1_554  S
O803        C810   1.259       .  A
O804       Al808   1.784       .  S
O805        C806   1.262       .  A
C806       C1101   1.489       .  S
C807       C1014   1.493       .  S
C810       C1028   1.467       .  S
C811        O812   1.251       .  A
C811       C1059   1.495       .  S
O813        C828   1.272       .  A
O813       Al821   1.926       .  S
C814        O824   1.273       .  A
C814        O815   1.263       .  A
C814        C986   1.486       .  S
O815       Al817   1.879       .  S
O816        C818   1.262       .  A
O816       Al817   1.930       .  S
Al817       O825   1.923       .  S
Al817       O827   1.880       .  S
Al817       O826   1.778       .  S
C818        O831   1.259       .  A
C818       C1056   1.482       .  S
O819        C829   1.270       .  A
O819       Al821   1.955       .  S
O820        C833   1.270       .  A
O820       Al830   1.957       .  S
Al821       O834   1.875       .  S
Al821       O831   1.909       .  S
Al821       O826   1.780       .  S
O822        C829   1.252       .  A
O822       Al830   1.854       .  S
O823        C832   1.258       .  A
O823       Al830   1.906       .  S
O824       Al830   1.947       .  S
O825        C832   1.263       .  A
O826       Al830   1.782       .  S
O827        C828   1.261       .  A
C828        C975   1.475       .  S
C829       C1454   1.484       .  S
C832       C1087   1.472       .  S
C833        O834   1.254       .  A
C833       C1429   1.495       .  S
O835        C850   1.266       .  A
O835       Al843   1.902       .  S
C836        O846   1.266       .  A
C836        O837   1.267   1_556  A
C836        C972   1.474       .  S
O837       Al839   1.902       .  S
O838        C840   1.258       .  A
O838       Al839   1.926       .  S
Al839       O847   1.925       .  S
Al839       O849   1.906       .  S
Al839       O848   1.785       .  S
C840        O853   1.250       .  A
C840        C930   1.488       .  S
O841        C851   1.267       .  A
O841       Al843   1.933       .  S
O842        C855   1.268       .  A
O842       Al852   1.934       .  S
Al843       O856   1.897       .  S
Al843       O853   1.884       .  S
Al843       O848   1.796       .  S
O844        C851   1.259       .  A
O844       Al852   1.891       .  S
O845        C854   1.248       .  A
O845       Al852   1.881       .  S
O846       Al852   1.895   1_556  S
O847        C854   1.259       .  A
O848       Al852   1.797       .  S
O849        C850   1.268       .  A
C850        C961   1.478       .  S
C854       C1017   1.487       .  S
C855        O856   1.261       .  A
O857        C872   1.267       .  A
O857       Al865   1.933       .  S
C858        O868   1.270       .  A
C858        O859   1.263       .  A
C858        C989   1.483       .  S
O859       Al861   1.890       .  S
O860        C862   1.264       .  A
O860       Al861   1.929       .  S
Al861       O869   1.917       .  S
Al861       O871   1.880       .  S
Al861       O870   1.767       .  S
C862        O875   1.265       .  A
C862        C916   1.483       .  S
O863        C873   1.272       .  A
O863       Al865   1.970       .  S
O864        C877   1.271       .  A
O864       Al874   1.961       .  S
Al865       O878   1.878       .  S
Al865       O875   1.922       .  S
Al865       O870   1.784       .  S
O866        C873   1.249       .  A
O866       Al874   1.850       .  S
O867        C876   1.260       .  A
O867       Al874   1.904       .  S
O868       Al874   1.935       .  S
O869        C876   1.262       .  A
O870       Al874   1.778       .  S
O871        C872   1.263       .  A
C872        C958   1.479       .  S
C873       C1129   1.494       .  S
C876       C1112   1.474       .  S
C877        O878   1.255       .  A
C877        C902   1.480       .  S
O879        C894   1.279       .  A
O879       Al887   1.956       .  S
C880        O890   1.277       .  A
C880        O881   1.264       .  A
C880       C1143   1.482       .  S
O881       Al883   1.877       .  S
O882        C884   1.257       .  A
O882       Al883   1.904       .  S
Al883       O891   1.924       .  S
Al883       O893   1.897       .  S
Al883       O892   1.778       .  S
C884        O897   1.256       .  A
C884        C944   1.471       .  S
O885        C895   1.270   1_545  A
O885       Al887   1.957       .  S
O886        C899   1.269       .  A
O886       Al896   1.952       .  S
Al887       O900   1.837       .  S
Al887       O897   1.907       .  S
Al887       O892   1.782       .  S
O888        C895   1.252   1_545  A
O888       Al896   1.863       .  S
O889        C898   1.258       .  A
O889       Al896   1.921       .  S
O890       Al896   1.948       .  S
O891        C898   1.257       .  A
O892       Al896   1.785       .  S
O893        C894   1.270       .  A
C894       C1000   1.495       .  S
C895       C1303   1.495       .  S
C898        C905   1.487       .  S
C899        O900   1.251       .  A
C899       C1317   1.484   1_545  S
C901        C902   1.395       .  A
C901        C906   1.399       .  A
C901        H908   1.085       .  S
C902        C903   1.416       .  A
C903        C904   1.412       .  A
C903        N910   1.431       .  S
C904        C905   1.402       .  A
C904        H909   1.083       .  S
C905        C906   1.415       .  A
C906        N907   1.425       .  S
N907        O911   1.261       .  A
N907        O912   1.261       .  A
N910        O914   1.262       .  A
N910        O913   1.262       .  A
C915        C916   1.397       .  A
C915        C920   1.404       .  A
C915        H922   1.084       .  S
C916        C917   1.413       .  A
C917        C918   1.409       .  A
C917        N924   1.427       .  S
C918        C919   1.404       .  A
C918        H923   1.084       .  S
C919       C1279   1.497       .  S
C919        C920   1.423       .  A
C920        N921   1.430       .  S
N921        O925   1.262       .  A
N921       O1310   1.262       .  A
N924        O928   1.261       .  A
N924        O927   1.262       .  A
O926       N1305   1.262   1_545  A
C929        C930   1.405       .  A
C929        C934   1.401       .  A
C929        H936   1.104       .  S
C930        C931   1.405       .  A
C931        C932   1.396       .  A
C931        N938   1.424       .  S
C932        C933   1.407       .  A
C932        H937   1.089       .  S
C933       C1283   1.483       .  S
C933        C934   1.407       .  A
C934        N935   1.428       .  S
N935        O939   1.262       .  A
N935        O940   1.262       .  A
N938        O942   1.263       .  A
N938        O941   1.262       .  A
C943        C944   1.393       .  A
C943        C948   1.393       .  A
C943        H950   1.084       .  S
C944        C945   1.412       .  A
C945        C946   1.410       .  A
C945        N952   1.428       .  S
C946        C947   1.404       .  A
C946        H951   1.084       .  S
C947        C948   1.413       .  A
N949        O953   1.262       .  A
N949        O954   1.261       .  A
N952        O956   1.262       .  A
N952        O955   1.262       .  A
C957        C958   1.403       .  A
C957        C962   1.394       .  A
C957        H964   1.084       .  S
C958        C959   1.413       .  A
C959        C960   1.401       .  A
C959        N966   1.432       .  S
C960        C961   1.405       .  A
C960        H965   1.084       .  S
C961        C962   1.414       .  A
C962        N963   1.432       .  S
N963        O967   1.262       .  A
N963        O968   1.259       .  A
N966        O970   1.261       .  A
N966        O969   1.262       .  A
C971        C972   1.403       .  A
C971        C976   1.402       .  A
C971        H978   1.084       .  S
C972        C973   1.407       .  A
C973        C974   1.390       .  A
C973        N980   1.422       .  S
C974        C975   1.397       .  A
C974        H979   1.084       .  S
C975        C976   1.416       .  A
C976        N977   1.430       .  S
N977        O981   1.262       .  A
N977        O982   1.262       .  A
N980        O984   1.260       .  A
N980        O983   1.262   1_556  A
C985        C986   1.404       .  A
C985        C990   1.401       .  A
C985        H992   1.084       .  S
C986        C987   1.417       .  A
C987        C988   1.401       .  A
C987        N994   1.435       .  S
C988        C989   1.403       .  A
C988        H993   1.083       .  S
C989        C990   1.415       .  A
C990        N991   1.432       .  S
N991        O995   1.262       .  A
N991        O996   1.262       .  A
N994        O998   1.262       .  A
N994        O997   1.262       .  A
C999       C1000   1.406       .  A
C999       C1004   1.403       .  A
C999       H1006   1.084       .  S
C1000      C1001   1.417       .  A
C1001      C1002   1.404       .  A
C1001      N1008   1.429       .  S
C1002      C1003   1.406       .  A
C1002      H1007   1.083       .  S
C1003      C1004   1.417       .  A
C1004      N1005   1.429       .  S
N1005      O1009   1.262   1_554  A
N1005      O1010   1.262   1_554  A
N1008      O1012   1.262       .  A
N1008      O1011   1.262       .  A
C1013      C1014   1.414   1_554  A
C1013      C1018   1.402       .  A
C1013      H1020   1.084       .  S
C1014      C1015   1.412       .  A
C1015      C1016   1.410       .  A
C1015      N1022   1.431       .  S
C1016      C1017   1.412   1_556  A
C1016      H1021   1.084       .  S
C1017      C1018   1.402       .  A
C1018      N1019   1.429       .  S
N1019      O1023   1.262       .  A
N1019      O1024   1.262       .  A
N1022      O1026   1.263       .  A
N1022      O1025   1.262       .  A
C1027      C1028   1.394       .  A
C1027      C1032   1.394       .  A
C1027      H1034   1.083       .  S
C1028      C1029   1.412   1_556  A
C1029      C1030   1.405       .  A
C1029      N1036   1.428       .  S
C1030      C1031   1.401       .  A
C1030      H1035   1.084       .  S
C1031      C1032   1.414   1_554  A
C1032      N1033   1.429       .  S
N1033      O1037   1.262       .  A
N1036      O1040   1.262       .  A
N1036      O1039   1.262       .  A
C1041      C1042   1.399       .  A
C1041      C1046   1.408       .  A
C1041      H1048   1.084       .  S
C1042      C1043   1.416       .  A
C1043      C1044   1.408       .  A
C1043      N1050   1.431       .  S
C1044      C1045   1.403       .  A
C1044      H1049   1.084       .  S
C1045      C1217   1.496       .  S
C1045      C1046   1.421       .  A
C1046      N1047   1.431       .  S
N1047      O1051   1.262   1_545  A
N1047      O1436   1.262   1_545  A
N1050      O1054   1.262       .  A
N1050      O1053   1.262       .  A
O1052      N1431   1.262       .  A
C1055      C1056   1.397       .  A
C1055      C1060   1.404       .  A
C1055      H1062   1.083       .  S
C1056      C1057   1.414       .  A
C1057      C1058   1.408       .  A
C1057      N1064   1.430       .  S
C1058      C1059   1.404       .  A
C1058      H1063   1.084       .  S
C1059      C1060   1.422       .  A
C1060      N1061   1.432       .  S
N1061      O1065   1.262       .  A
N1061      O1066   1.262       .  A
N1064      O1068   1.262       .  A
N1064      O1067   1.262       .  A
C1069      C1070   1.402       .  A
C1069      C1074   1.404       .  A
C1069      H1076   1.084       .  S
C1070      C1213   1.484       .  S
C1070      C1071   1.420       .  A
C1071      C1072   1.399       .  A
C1071      N1462   1.432       .  S
C1072      C1073   1.397       .  A
C1072      H1077   1.083       .  S
C1073      C1074   1.415       .  A
C1074      N1075   1.429       .  S
N1075      O1079   1.262       .  A
N1075      O1080   1.262       .  A
N1078      C1455   1.432       .  S
N1078      O1082   1.262       .  A
N1078      O1081   1.262       .  A
C1083      C1084   1.405       .  A
C1083      C1088   1.402       .  A
C1083      H1090   1.085       .  S
C1084      C1085   1.410       .  A
C1085      C1086   1.404       .  A
C1085      N1092   1.434       .  S
C1086      C1087   1.405       .  A
C1086      H1091   1.084       .  S
C1087      C1088   1.405       .  A
C1088      N1089   1.432       .  S
N1089      O1093   1.262       .  A
N1089      O1094   1.262       .  A
N1092      O1096   1.262       .  A
C1097      C1098   1.400       .  A
C1097      C1102   1.403       .  A
C1097      H1104   1.084       .  S
C1098      C1099   1.411       .  A
C1099      C1100   1.398       .  A
C1099      N1106   1.427       .  S
C1100      C1101   1.402       .  A
C1100      H1105   1.084       .  S
C1101      C1102   1.422       .  A
C1102      N1103   1.430       .  S
N1103      O1107   1.262       .  A
N1103      O1108   1.262       .  A
N1106      O1110   1.261       .  A
N1106      O1109   1.262       .  A
C1111      C1112   1.393       .  A
C1111      C1116   1.397       .  A
C1111      H1118   1.084       .  S
C1112      C1113   1.414       .  A
C1113      C1114   1.409       .  A
C1113      N1120   1.428       .  S
C1114      C1115   1.402       .  A
C1114      H1119   1.084       .  S
C1115      C1116   1.415       .  A
N1117      O1121   1.262       .  A
N1117      O1122   1.262       .  A
N1120      O1124   1.262       .  A
N1120      O1123   1.262       .  A
C1125      C1126   1.393       .  A
C1125      C1130   1.392       .  A
C1125      H1132   1.078       .  S
C1126      C1127   1.416       .  A
C1127      C1128   1.410       .  A
C1127      N1134   1.429       .  S
C1128      C1129   1.406       .  A
C1128      H1133   1.083       .  S
C1129      C1130   1.424       .  A
C1130      N1131   1.431       .  S
N1131      O1135   1.262       .  A
N1131      O1136   1.261       .  A
N1134      O1138   1.262       .  A
N1134      O1137   1.262       .  A
C1139      C1140   1.400       .  A
C1139      C1144   1.395       .  A
C1139      H1146   1.084       .  S
C1140      C1141   1.410       .  A
C1141      C1142   1.399       .  A
C1141      N1148   1.429       .  S
C1142      C1143   1.405       .  A
C1142      H1147   1.083       .  S
C1143      C1144   1.419       .  A
C1144      N1145   1.431       .  S
N1145      O1149   1.262       .  A
N1145      O1150   1.262       .  A
N1148      O1152   1.261       .  A
N1148      O1151   1.262       .  A
O1153      C1168   1.268       .  A
O1153     Al1161   1.913       .  S
C1154      O1164   1.264       .  A
C1154      O1155   1.264       .  A
C1154      C1524   1.472       .  S
O1155     Al1157   1.900       .  S
O1156      C1158   1.256       .  A
O1156     Al1157   1.902       .  S
Al1157     O1165   1.907       .  S
Al1157     O1167   1.898       .  S
Al1157     O1166   1.782       .  S
C1158      O1171   1.252       .  A
C1158      C1457   1.478       .  S
O1159      C1169   1.269   1_655  A
O1159     Al1161   1.945       .  S
O1160      C1173   1.267   1_655  A
O1160     Al1170   1.926       .  S
Al1161     O1174   1.891   1_655  S
Al1161     O1171   1.897       .  S
Al1161     O1166   1.794       .  S
O1162      C1169   1.259       .  A
O1162     Al1170   1.892   1_455  S
O1163      C1172   1.252       .  A
O1163     Al1170   1.896       .  S
O1164     Al1170   1.885       .  S
O1165      C1172   1.257       .  A
O1166     Al1170   1.791       .  S
O1167      C1168   1.265       .  A
C1168      C1482   1.481       .  S
C1172      C1510   1.483       .  S
C1173      O1174   1.260       .  A
O1175      C1190   1.277       .  A
O1175     Al1183   1.952       .  S
C1176      O1186   1.278       .  A
C1176      O1177   1.267   1_554  A
C1176      C1387   1.498       .  S
O1177     Al1179   1.892       .  S
O1178      C1180   1.259       .  A
O1178     Al1179   1.923       .  S
Al1179     O1187   1.910       .  S
Al1179     O1189   1.882       .  S
Al1179     O1188   1.779       .  S
C1180      O1193   1.260       .  A
C1180      C1426   1.483       .  S
O1181      C1191   1.274       .  A
O1181     Al1183   1.973       .  S
O1182      C1195   1.272       .  A
O1182     Al1192   1.969       .  S
Al1183     O1196   1.855       .  S
Al1183     O1193   1.918       .  S
Al1183     O1188   1.782       .  S
O1184      C1191   1.251       .  A
O1184     Al1192   1.846       .  S
O1185      C1194   1.256       .  A
O1185     Al1192   1.901       .  S
O1186     Al1192   1.961   1_554  S
O1187      C1194   1.259       .  A
O1188     Al1192   1.783       .  S
O1189      C1190   1.263       .  A
C1190      C1485   1.489       .  S
C1191      C1398   1.496       .  S
C1194      C1412   1.469       .  S
C1195      O1196   1.250       .  A
C1195      C1443   1.496       .  S
O1197      C1212   1.273       .  A
O1197     Al1205   1.927       .  S
C1198      O1208   1.274       .  A
C1198      O1199   1.263       .  A
C1198      C1370   1.490       .  S
O1199     Al1201   1.883       .  S
O1200      C1202   1.262       .  A
O1200     Al1201   1.932       .  S
Al1201     O1209   1.925       .  S
Al1201     O1211   1.875       .  S
Al1201     O1210   1.778       .  S
C1202      O1215   1.259       .  A
C1202      C1440   1.482       .  S
O1203      C1213   1.271   1_565  A
O1203     Al1205   1.956       .  S
O1204      C1217   1.270   1_565  A
O1204     Al1214   1.961       .  S
Al1205     O1218   1.876       .  S
Al1205     O1215   1.908       .  S
Al1205     O1210   1.780       .  S
O1206      C1213   1.252   1_565  A
O1206     Al1214   1.851       .  S
O1207      C1216   1.259       .  A
O1207     Al1214   1.906       .  S
O1208     Al1214   1.950       .  S
O1209      C1216   1.263       .  A
O1210     Al1214   1.780       .  S
O1211      C1212   1.261       .  A
C1212      C1359   1.472       .  S
C1216      C1471   1.472       .  S
C1217      O1218   1.253   1_545  A
O1219      C1234   1.265       .  A
O1219     Al1227   1.901       .  S
C1220      O1230   1.265       .  A
C1220      O1221   1.265   1_556  A
C1220      C1356   1.470       .  S
O1221     Al1223   1.895       .  S
O1222      C1224   1.259       .  A
O1222     Al1223   1.927       .  S
Al1223     O1231   1.927       .  S
Al1223     O1233   1.898       .  S
Al1223     O1232   1.783       .  S
C1224      O1237   1.250       .  A
C1224      C1314   1.491       .  S
O1225      C1235   1.266       .  A
O1225     Al1227   1.928       .  S
O1226      C1239   1.267       .  A
O1226     Al1236   1.931       .  S
Al1227     O1240   1.901       .  S
Al1227     O1237   1.888       .  S
Al1227     O1232   1.797       .  S
O1228      C1235   1.259       .  A
O1228     Al1236   1.891       .  S
O1229      C1238   1.249       .  A
O1229     Al1236   1.883       .  S
O1230     Al1236   1.894   1_556  S
O1231      C1238   1.260       .  A
O1232     Al1236   1.797       .  S
O1233      C1234   1.267       .  A
C1234      C1345   1.472       .  S
C1238      C1401   1.488       .  S
C1239      O1240   1.261       .  A
O1241      C1256   1.271       .  A
O1241     Al1249   1.949       .  S
C1242      O1252   1.274       .  A
C1242      O1243   1.264       .  A
C1242      C1373   1.487       .  S
O1243     Al1245   1.885       .  S
O1244      C1246   1.261       .  A
O1244     Al1245   1.925       .  S
Al1245     O1253   1.914       .  S
Al1245     O1255   1.879       .  S
Al1245     O1254   1.773       .  S
C1246      O1259   1.262       .  A
C1246      C1300   1.482       .  S
O1247      C1257   1.271       .  A
O1247     Al1249   1.962       .  S
O1248      C1261   1.272       .  A
O1248     Al1258   1.964       .  S
Al1249     O1262   1.865       .  S
Al1249     O1259   1.919       .  S
Al1249     O1254   1.785       .  S
O1250      C1257   1.250       .  A
O1250     Al1258   1.849       .  S
O1251      C1260   1.258       .  A
O1251     Al1258   1.905       .  S
O1252     Al1258   1.948       .  S
O1253      C1260   1.260       .  A
O1254     Al1258   1.784       .  S
O1255      C1256   1.264       .  A
C1256      C1342   1.484       .  S
C1257      C1513   1.490       .  S
C1260      C1496   1.473       .  S
C1261      O1262   1.254       .  A
C1261      C1286   1.496       .  S
O1263      C1278   1.276       .  A
O1263     Al1271   1.956       .  S
C1264      O1274   1.272       .  A
C1264      O1265   1.262       .  A
C1264      C1527   1.479       .  S
O1265     Al1267   1.877       .  S
O1266      C1268   1.261       .  A
O1266     Al1267   1.917       .  S
Al1267     O1275   1.927       .  S
Al1267     O1277   1.895       .  S
Al1267     O1276   1.775       .  S
C1268      O1281   1.258       .  A
C1268      C1328   1.473       .  S
O1269      C1279   1.273       .  A
O1269     Al1271   1.971       .  S
O1270      C1283   1.269       .  A
O1270     Al1280   1.955       .  S
Al1271     O1284   1.833       .  S
Al1271     O1281   1.903       .  S
Al1271     O1276   1.779       .  S
O1272      C1279   1.251       .  A
O1272     Al1280   1.859       .  S
O1273      C1282   1.258       .  A
O1273     Al1280   1.905       .  S
O1274     Al1280   1.933       .  S
O1275      C1282   1.261       .  A
O1276     Al1280   1.785       .  S
O1277      C1278   1.266       .  A
C1278      C1384   1.496       .  S
C1282      C1289   1.477       .  S
C1283      O1284   1.250       .  A
C1285      C1286   1.404       .  A
C1285      C1290   1.409       .  A
C1285      H1292   1.084       .  S
C1286      C1287   1.422       .  A
C1287      C1288   1.401       .  A
C1287      N1294   1.426       .  S
C1288      C1289   1.390       .  A
C1288      H1293   1.085       .  S
C1289      C1290   1.413       .  A
C1290      N1291   1.429       .  S
N1291      O1295   1.262       .  A
N1291      O1296   1.262       .  A
N1294      O1298   1.262       .  A
N1294      O1297   1.261       .  A
C1299      C1300   1.397       .  A
C1299      C1304   1.404       .  A
C1299      H1306   1.084       .  S
C1300      C1301   1.413       .  A
C1301      C1302   1.409       .  A
C1301      N1308   1.429       .  S
C1302      C1303   1.404       .  A
C1302      H1307   1.084       .  S
C1303      C1304   1.421       .  A
C1304      N1305   1.430       .  S
N1305      O1309   1.262       .  A
N1308      O1312   1.262       .  A
N1308      O1311   1.262       .  A
C1313      C1314   1.408       .  A
C1313      C1318   1.406       .  A
C1313      H1320   1.074       .  S
C1314      C1315   1.405       .  A
C1315      C1316   1.399       .  A
C1315      N1322   1.426       .  S
C1316      C1317   1.408       .  A
C1316      H1321   1.084   1_565  S
C1317      C1318   1.407       .  A
C1318      N1319   1.429       .  S
N1319      O1323   1.262       .  A
N1319      O1324   1.262       .  A
N1322      O1326   1.263       .  A
N1322      O1325   1.262       .  A
C1327      C1328   1.393       .  A
C1327      C1332   1.396       .  A
C1327      H1334   1.084       .  S
C1328      C1329   1.414       .  A
C1329      C1330   1.409       .  A
C1329      N1336   1.428       .  S
C1330      C1331   1.402       .  A
C1330      H1335   1.084       .  S
C1331      C1332   1.414       .  A
N1333      O1337   1.262       .  A
N1333      O1338   1.261       .  A
N1336      O1340   1.262       .  A
N1336      O1339   1.261       .  A
C1341      C1342   1.408       .  A
C1341      C1346   1.396       .  A
C1341      H1348   1.084       .  S
C1342      C1343   1.416       .  A
C1343      C1344   1.398       .  A
C1343      N1350   1.430       .  S
C1344      C1345   1.399       .  A
C1344      H1349   1.085       .  S
C1345      C1346   1.409       .  A
C1346      N1347   1.429       .  S
N1347      O1351   1.262       .  A
N1347      O1352   1.259       .  A
N1350      O1354   1.261       .  A
N1350      O1353   1.263       .  A
C1355      C1356   1.402       .  A
C1355      C1360   1.401       .  A
C1355      H1362   1.084       .  S
C1356      C1357   1.406       .  A
C1357      C1358   1.389       .  A
C1357      N1364   1.422       .  S
C1358      C1359   1.397       .  A
C1358      H1363   1.084       .  S
C1359      C1360   1.417       .  A
C1360      N1361   1.431       .  S
N1361      O1365   1.262       .  A
N1361      O1366   1.262       .  A
N1364      O1368   1.260       .  A
N1364      O1367   1.262   1_556  A
C1369      C1370   1.405       .  A
C1369      C1374   1.401       .  A
C1369      H1376   1.084       .  S
C1370      C1371   1.418       .  A
C1371      C1372   1.402       .  A
C1371      N1378   1.432       .  S
C1372      C1373   1.403       .  A
C1372      H1377   1.083       .  S
C1373      C1374   1.416       .  A
C1374      N1375   1.431       .  S
N1375      O1379   1.262       .  A
N1375      O1380   1.262       .  A
N1378      O1382   1.262       .  A
N1378      O1381   1.262       .  A
C1383      C1384   1.405       .  A
C1383      C1388   1.404       .  A
C1383      H1390   1.084       .  S
C1384      C1385   1.417       .  A
C1385      C1386   1.404       .  A
C1385      N1392   1.429       .  S
C1386      C1387   1.406       .  A
C1386      H1391   1.083       .  S
C1387      C1388   1.418       .  A
C1388      N1389   1.429       .  S
N1389      O1393   1.262   1_554  A
N1389      O1394   1.262   1_554  A
N1392      O1396   1.262       .  A
N1392      O1395   1.262       .  A
C1397      C1398   1.415   1_554  A
C1397      C1402   1.402       .  A
C1397      H1404   1.084       .  S
C1398      C1399   1.412       .  A
C1399      C1400   1.411       .  A
C1399      N1406   1.430       .  S
C1400      C1401   1.412   1_556  A
C1400      H1405   1.084       .  S
C1401      C1402   1.403       .  A
C1402      N1403   1.429       .  S
N1403      O1407   1.262       .  A
N1403      O1408   1.262       .  A
N1406      O1410   1.262       .  A
N1406      O1409   1.262       .  A
C1411      C1412   1.394       .  A
C1411      C1416   1.394       .  A
C1411      H1418   1.084       .  S
C1412      C1413   1.413   1_556  A
C1413      C1414   1.407       .  A
C1413      N1420   1.429       .  S
C1414      C1415   1.402       .  A
C1414      H1419   1.084       .  S
C1415      C1416   1.415   1_554  A
C1416      N1417   1.429       .  S
N1417      O1421   1.262       .  A
N1420      O1424   1.262       .  A
N1420      O1423   1.262       .  A
C1425      C1426   1.399       .  A
C1425      C1430   1.407       .  A
C1425      H1432   1.084       .  S
C1426      C1427   1.415       .  A
C1427      C1428   1.407       .  A
C1427      N1434   1.431       .  S
C1428      C1429   1.402       .  A
C1428      H1433   1.084       .  S
C1429      C1430   1.420       .  A
C1430      N1431   1.431       .  S
N1431      O1435   1.262       .  A
N1434      O1438   1.262       .  A
N1434      O1437   1.262       .  A
C1439      C1440   1.396       .  A
C1439      C1444   1.404       .  A
C1439      H1446   1.083       .  S
C1440      C1441   1.414       .  A
C1441      C1442   1.409       .  A
C1441      N1448   1.430       .  S
C1442      C1443   1.404       .  A
C1442      H1447   1.084       .  S
C1443      C1444   1.423       .  A
C1444      N1445   1.432       .  S
N1445      O1449   1.262       .  A
N1445      O1450   1.262       .  A
N1448      O1452   1.262       .  A
N1448      O1451   1.262       .  A
C1453      C1454   1.401       .  A
C1453      C1458   1.404       .  A
C1453      H1460   1.084       .  S
C1454      C1455   1.419       .  A
C1455      C1456   1.400       .  A
C1456      C1457   1.397       .  A
C1456      H1461   1.083       .  S
C1457      C1458   1.414       .  A
C1458      N1459   1.428       .  S
N1459      O1463   1.262       .  A
N1459      O1464   1.262       .  A
N1462      O1466   1.262   1_545  A
N1462      O1465   1.262       .  A
C1467      C1468   1.405       .  A
C1467      C1472   1.402       .  A
C1467      H1474   1.084       .  S
C1468      C1469   1.408       .  A
C1469      C1470   1.403       .  A
C1469      N1476   1.432       .  S
C1470      C1471   1.405       .  A
C1470      H1475   1.084       .  S
C1471      C1472   1.405       .  A
C1472      N1473   1.431       .  S
N1473      O1477   1.262       .  A
N1473      O1478   1.262       .  A
N1476      O1480   1.262       .  A
C1481      C1482   1.401       .  A
C1481      C1486   1.402       .  A
C1481      H1488   1.084       .  S
C1482      C1483   1.412       .  A
C1483      C1484   1.399       .  A
C1483      N1490   1.431       .  S
C1484      C1485   1.404       .  A
C1484      H1489   1.083       .  S
C1485      C1486   1.421       .  A
C1486      N1487   1.431       .  S
N1487      O1491   1.262       .  A
N1487      O1492   1.262       .  A
N1490      O1494   1.262       .  A
N1490      O1493   1.262       .  A
C1495      C1496   1.394       .  A
C1495      C1500   1.398       .  A
C1495      H1502   1.084       .  S
C1496      C1497   1.414       .  A
C1497      C1498   1.408       .  A
C1497      N1504   1.428       .  S
C1498      C1499   1.401       .  A
C1498      H1503   1.084       .  S
C1499      C1500   1.416       .  A
N1501      O1505   1.262   1_655  A
N1501      O1506   1.261       .  A
N1504      O1508   1.262       .  A
N1504      O1507   1.262       .  A
C1509      C1510   1.396       .  A
C1509      C1514   1.400       .  A
C1509      H1516   1.083       .  S
C1510      C1511   1.418       .  A
C1511      C1512   1.406       .  A
C1511      N1518   1.430       .  S
C1512      C1513   1.402       .  A
C1512      H1517   1.084       .  S
C1513      C1514   1.422       .  A
C1514      N1515   1.431       .  S
N1515      O1519   1.262       .  A
N1515      O1520   1.262       .  A
N1518      O1522   1.262       .  A
N1518      O1521   1.262       .  A
C1523      C1524   1.400       .  A
C1523      C1528   1.394       .  A
C1523      H1530   1.083       .  S
C1524      C1525   1.410       .  A
C1525      C1526   1.396       .  A
C1525      N1532   1.429       .  S
C1526      C1527   1.405       .  A
C1526      H1531   1.084       .  S
C1527      C1528   1.416       .  A
C1528      N1529   1.430       .  S
N1529      O1533   1.262       .  A
N1529      O1534   1.262       .  A
N1532      O1536   1.261       .  A
N1532      O1535   1.262       .  A
