geometry optimzed in LAMMPS
_audit_creation_date              2020-11-30 
_audit_creation_method            'lammps2cif' 
_symmetry_space_group_name_H-M    'P1' 
_symmetry_Int_Tables_number       1 
_symmetry_cell_setting            triclinic 
loop_ 
_symmetry_equiv_pos_as_xyz 
  x,y,z 
_cell_length_a                    31.803547 
_cell_length_b                    49.43008343780332 
_cell_length_c                    47.27952059598663 
_cell_angle_alpha                 89.98623877694024 
_cell_angle_beta                  90.03044557625677 
_cell_angle_gamma                 89.00365982463791 
loop_ 
_atom_site_label 
_atom_site_type_symbol 
_atom_site_fract_x 
_atom_site_fract_y 
_atom_site_fract_z 
_atom_site_charge 
C1          C  0.00386952  0.36598661  0.01739674     0.02800
C2          C  0.46649781  0.35482809  0.00698212    -0.13300
C3          C  0.46780316  0.33584896  0.48486759     0.00300
C4          C  0.50683987  0.32791033  0.47355074    -0.11800
C5          C  0.04415656  0.33919872  0.48343957     0.02800
C6          C  0.04250058  0.35836545  0.00516739    -0.11300
H7          H  0.43655880  0.36059816  0.01632807     0.08400
H8          H  0.50839829  0.31211756  0.45765834     0.06000
H9          H  0.07143343  0.36706660  0.01277456     0.05800
C10         C  0.00732831  0.10462694  0.02317336     0.02800
C11         C  0.46986120  0.11446527  0.01087995    -0.13300
C12         C  0.47078748  0.13464731  0.49007827     0.00300
C13         C  0.00948673  0.14486181  0.48135069    -0.11800
C14         C  0.04703701  0.13554352  0.49369647     0.02800
C15         C  0.04595572  0.11542376  0.01459224    -0.11300
H16         H  0.43993832  0.10638308  0.01743944     0.08400
H17         H  0.01032003  0.16075496  0.46555383     0.06000
H18         H  0.07501658  0.10854070  0.02441112     0.05800
Fe19       Fe  0.30769476  0.23332109  0.39460893     1.65800
Fe20       Fe  0.20084177  0.23243431  0.39670063     1.73200
Fe21       Fe  0.25704360  0.23444331  0.45818917     1.54400
O22         O  0.30614842  0.20658047  0.46017576    -0.82000
O23         O  0.17734554  0.26514136  0.41891342    -0.80300
O24         O  0.33211792  0.20080545  0.41680224    -0.84500
O25         O  0.33788665  0.25982785  0.42128591    -0.79300
O26         O  0.21592125  0.20300284  0.46281518    -0.81100
O27         O  0.21974095  0.25886746  0.36528486    -0.83800
C28         C  0.33049907  0.27125199  0.44483115     0.96900
C29         C  0.33118255  0.19486604  0.44293332     1.04400
O30         O  0.25515295  0.23337378  0.41657221    -1.12800
O31         O  0.21844751  0.19959855  0.37263594    -0.71700
O32         O  0.28609160  0.20670240  0.36421881    -0.78700
O33         O  0.29833255  0.26603107  0.45947948    -0.79400
C34         C  0.25219528  0.19435723  0.35936476     0.95800
O35         O  0.28822759  0.26596878  0.37071428    -0.77400
O36         O  0.17430426  0.20573883  0.42499889    -0.82600
C37         C  0.18132240  0.27294025  0.44435254     0.98400
C38         C  0.18400528  0.19572831  0.44889512     1.04400
O39         O  0.20844654  0.26257013  0.46102086    -0.78200
C40         C  0.25324225  0.27104074  0.35878220     1.02700
C41         C  0.25488022  0.34998856  0.26838873     0.02800
C42         C  0.21663870  0.36023158  0.25753618    -0.13300
C43         C  0.21623621  0.37906816  0.23536199     0.00300
C44         C  0.25450382  0.38784669  0.22423222    -0.11800
C45         C  0.29290147  0.37798477  0.23489921     0.02800
C46         C  0.29297707  0.35876100  0.25673673    -0.11300
H47         H  0.18715348  0.35380982  0.26660737     0.08400
H48         H  0.25447544  0.40340735  0.20806659     0.06000
H49         H  0.32264808  0.35087274  0.26478086     0.05800
C50         C  0.24649905  0.11024040  0.27450288     0.02800
C51         C  0.20814414  0.10138458  0.26323342    -0.13300
C52         C  0.20780218  0.08106166  0.24253349     0.00300
C53         C  0.24596068  0.06986902  0.23298697    -0.11800
C54         C  0.28426603  0.07846806  0.24405259     0.02800
C55         C  0.28450251  0.09863227  0.26481778    -0.11300
H56         H  0.17872305  0.11043779  0.27032229     0.08400
H57         H  0.24584637  0.05395090  0.21720153     0.06000
H58         H  0.31419935  0.10529078  0.27338591     0.05800
Fe59       Fe  0.44742195  0.48306125  0.14491636     1.65800
Fe60       Fe  0.05414508  0.48176393  0.14546291     1.73200
Fe61       Fe  0.00003026  0.48099095  0.20783680     1.54400
O62         O  0.45681091  0.01247134  0.21147272    -0.82000
O63         O  0.08338518  0.45456834  0.17232471    -0.80300
O64         O  0.41715243  0.00823166  0.17317448    -0.84500
O65         O  0.42516112  0.44950693  0.16594249    -0.79300
O66         O  0.04748080  0.00895756  0.21133467    -0.81100
O67         O  0.03723759  0.44957330  0.12036708    -0.83800
C68         C  0.42759655  0.44209145  0.19167001     0.96900
C69         C  0.42435739  0.01861316  0.19710102     1.04400
O70         O  0.00053990  0.48195487  0.16616681    -1.12800
O71         O  0.03318827  0.00905445  0.11525270    -0.75300
O72         O  0.46481312  0.01688906  0.12213711    -0.78700
O73         O  0.45253959  0.45297679  0.20917699    -0.79400
C74         C  0.99937121  0.02210942  0.10998273     0.95800
O75         O  0.46911549  0.45781075  0.11323801    -0.77400
O76         O  0.07629575  0.01379606  0.16874620    -0.82600
C77         C  0.07542257  0.44326802  0.19574063     0.98400
C78         C  0.07307848  0.02035461  0.19465287     1.04400
O79         O  0.04293572  0.44925627  0.21006984    -0.78200
C80         C  0.00308871  0.44527507  0.10735796     1.02700
C81         C  0.33226882  0.06815572  0.20435957    -0.26600
C82         C  0.32370270  0.06615693  0.23329344    -0.14700
C83         C  0.35049909  0.05050655  0.25079951     0.35900
C84         C  0.38491802  0.03650048  0.23867987    -0.26100
C85         C  0.39214369  0.03721268  0.20932778    -0.15300
C86         C  0.36569654  0.05377104  0.19216441     0.37000
N87         N  0.37198507  0.05664864  0.16234384    -0.89500
H88         H  0.31181231  0.08034885  0.19092330     0.18100
H89         H  0.40471152  0.02375718  0.25198354     0.18100
N90         N  0.34162227  0.04798638  0.28048930    -0.88600
H91         H  0.36614167  0.03827294  0.15232366     0.35500
H92         H  0.40315557  0.06205050  0.15895467     0.40600
H93         H  0.36430340  0.03565889  0.29035020     0.40200
H94         H  0.31297729  0.03809272  0.28249676     0.35100
C95         C  0.16258811  0.07002645  0.20154521    -0.26600
C96         C  0.16810887  0.07046282  0.23095843    -0.14700
C97         C  0.13845714  0.05789675  0.24850162     0.35900
C98         C  0.10567725  0.04332227  0.23609415    -0.26100
C99         C  0.10216772  0.04080397  0.20649308    -0.15300
C100        C  0.12967080  0.05568695  0.18907542     0.37000
N101        N  0.12495678  0.05566144  0.15882441    -0.89500
H102        H  0.18503443  0.08023845  0.18820587     0.18100
H103        H  0.08432958  0.03256266  0.24974190     0.18100
N104        N  0.14296392  0.05876667  0.27875641    -0.88600
H105        H  0.14827787  0.06717363  0.14924753     0.35500
H106        H  0.09623912  0.06526969  0.15415086     0.40600
H107        H  0.17062881  0.04819801  0.28403734     0.40200
H108        H  0.11834196  0.04866130  0.28860246     0.35100
C109        C  0.34101631  0.38986717  0.19548760    -0.26600
C110        C  0.33239418  0.38997123  0.22458881    -0.14700
C111        C  0.35867708  0.40431011  0.24307173     0.35900
C112        C  0.39154035  0.41957362  0.23185965    -0.26100
C113        C  0.39834447  0.42125616  0.20247850    -0.15300
C114        C  0.37402778  0.40507533  0.18421634     0.37000
N115        N  0.38221706  0.40454453  0.15431673    -0.89500
H116        H  0.32102963  0.37847408  0.18143578     0.18100
H117        H  0.41024483  0.43153535  0.24616819     0.18100
N118        N  0.35050533  0.40453777  0.27299529    -0.88600
H119        H  0.36116921  0.39189582  0.14395722     0.35500
H120        H  0.41218840  0.39595054  0.15142891     0.40600
H121        H  0.32145893  0.41428312  0.27620590     0.40200
H122        H  0.37287816  0.41595923  0.28366777     0.35100
C123        C  0.14851062  0.40340907  0.24486661    -0.26600
C124        C  0.17622374  0.39149972  0.22523399    -0.14700
C125        C  0.16731772  0.39370033  0.19610108     0.35900
C126        C  0.13275814  0.40954326  0.18715286    -0.26100
C127        C  0.10651213  0.42307131  0.20668875    -0.15300
C128        C  0.11392168  0.41911925  0.23600897     0.37000
N129        N  0.08853857  0.43190888  0.25734097    -0.89500
H130        H  0.15505249  0.40172257  0.26730619     0.18100
H131        H  0.12695665  0.41191601  0.16469338     0.18100
N132        N  0.19392909  0.38025781  0.17572233    -0.88600
H133        H  0.05770136  0.42518501  0.25536021     0.35500
H134        H  0.08908789  0.45285869  0.25438706     0.40600
H135        H  0.18325817  0.38406259  0.15516394     0.40200
H136        H  0.19148564  0.35942742  0.17904304     0.35100
C137        C  0.27254259  0.15437343  0.29183046    -0.26600
C138        C  0.24725239  0.13178239  0.29624442    -0.14700
C139        C  0.22376575  0.12978729  0.32142535     0.35900
C140        C  0.22592264  0.15053794  0.34161297    -0.26100
C141        C  0.25173195  0.17296622  0.33747242    -0.15300
C142        C  0.27519159  0.17498822  0.31216787     0.37000
N143        N  0.30024961  0.19834837  0.30663212    -0.89500
H144        H  0.29020206  0.15595432  0.27231561     0.18100
H145        H  0.20787871  0.14896396  0.36095909     0.18100
N146        N  0.19840759  0.10650305  0.32661066    -0.88600
H147        H  0.31205936  0.19776776  0.28599680     0.35500
H148        H  0.32647133  0.19723852  0.31993220     0.40600
H149        H  0.21862801  0.08966095  0.32810191     0.40200
H150        H  0.18301839  0.10823086  0.34608442     0.35100
C151        C  0.22897590  0.30745606  0.28972874    -0.26600
C152        C  0.25458938  0.33017829  0.29196601    -0.14700
C153        C  0.27888465  0.33382052  0.31664427     0.35900
C154        C  0.27759616  0.31434224  0.33827132    -0.26100
C155        C  0.25183484  0.29164496  0.33607015    -0.15300
C156        C  0.22713358  0.28819880  0.31149950     0.37000
N157        N  0.20179137  0.26460177  0.30808274    -0.89500
H158        H  0.21058775  0.30458806  0.27069221     0.18100
H159        H  0.29651080  0.31701321  0.35710842     0.18100
N160        N  0.30434126  0.35738872  0.31980933    -0.88600
H161        H  0.18896360  0.26396047  0.28771757     0.35500
H162        H  0.17625359  0.26655472  0.32185712     0.40600
H163        H  0.28413184  0.37429176  0.32039136     0.40200
H164        H  0.32036009  0.35691503  0.33912398     0.35100
C165        C  0.10340379  0.14080346  0.45829422    -0.26600
C166        C  0.08701857  0.14774221  0.48490922    -0.14700
C167        C  0.10640618  0.16823560  0.50096586     0.35900
C168        C  0.14042477  0.18201816  0.48934348    -0.26100
C169        C  0.15505926  0.17630265  0.46194338    -0.15300
C170        C  0.13758886  0.15451840  0.44672946     0.37000
N171        N  0.15336584  0.14588560  0.41961312    -0.89500
H172        H  0.08884203  0.12492801  0.44609534     0.18100
H173        H  0.15378790  0.19858030  0.50118021     0.18100
N174        N  0.09152597  0.17644662  0.02844515    -0.88600
H175        H  0.16272777  0.12557935  0.42153129     0.35500
H176        H  0.18053396  0.15617044  0.41411216     0.40600
H177        H  0.06608826  0.16507434  0.03514204     0.40200
H178        H  0.08064175  0.19647340  0.02682966     0.35100
C179        C  0.36749415  0.17332876  0.48400888    -0.26600
C180        C  0.36245886  0.17500341  0.45446181    -0.14700
C181        C  0.39054376  0.16015175  0.43685430     0.35900
C182        C  0.42505609  0.14635578  0.44906185    -0.26100
C183        C  0.43141024  0.14639705  0.47840257    -0.15300
C184        C  0.40175953  0.15936539  0.49613196     0.37000
N185        N  0.40763320  0.15941663  0.02630068    -0.89500
H186        H  0.34597652  0.18422636  0.49782544     0.18100
H187        H  0.44762196  0.13588354  0.43561874     0.18100
N188        N  0.38459325  0.15952250  0.40671163    -0.88600
H189        H  0.38284599  0.16974637  0.03633083     0.35500
H190        H  0.43485858  0.17022059  0.03064389     0.40600
H191        H  0.35647597  0.14951745  0.40279257     0.40200
H192        H  0.40842478  0.14806291  0.39696426     0.35100
C193        C  0.47856660  0.08710589  0.06852832    -0.26600
C194        C  0.00570545  0.08344272  0.04536200    -0.14700
C195        C  0.03046100  0.05956544  0.04347242     0.35900
C196        C  0.02803380  0.04007984  0.06500653    -0.26100
C197        C  0.00084998  0.04366440  0.08819317    -0.15300
C198        C  0.47607059  0.06756039  0.09005377     0.37000
N199        N  0.44935684  0.07224610  0.11408971    -0.89500
H200        H  0.45980069  0.10555943  0.07006470     0.18100
H201        H  0.04688275  0.02167203  0.06336885     0.18100
N202        N  0.05729513  0.05494530  0.01942183    -0.88600
H203        H  0.43304938  0.09069946  0.11211807     0.35500
H204        H  0.46878804  0.07397246  0.13182860     0.40600
H205        H  0.03805102  0.05346075  0.00157745     0.40200
H206        H  0.07346207  0.03642781  0.02130584     0.35100
C207        C  0.12758598  0.30921044  0.43547871    -0.26600
C208        C  0.15173047  0.29417163  0.45508769    -0.14700
C209        C  0.14462729  0.29830911  0.48439247     0.35900
C210        C  0.11139729  0.31541061  0.49307226    -0.26100
C211        C  0.08489662  0.32818233  0.47330344    -0.15300
C212        C  0.09464219  0.32638055  0.44419512     0.37000
N213        N  0.07130108  0.34111400  0.42294229    -0.89500
H214        H  0.13351652  0.30711145  0.41300945     0.18100
H215        H  0.10409970  0.31709124  0.01540522     0.18100
N216        N  0.16929881  0.28408021  0.50531754    -0.88600
H217        H  0.09248878  0.35341399  0.41226312     0.35500
H218        H  0.04925344  0.35435975  0.43203662     0.40600
H219        H  0.16112496  0.26368937  0.50440297     0.40200
H220        H  0.16148143  0.29070945  0.02566700     0.35100
C221        C  0.40261083  0.30997201  0.49425924    -0.26600
C222        C  0.42910481  0.32257387  0.47473708    -0.14700
C223        C  0.42044358  0.32030830  0.44562134     0.35900
C224        C  0.38707242  0.30440308  0.43643469    -0.26100
C225        C  0.36172973  0.29060924  0.45579994    -0.15300
C226        C  0.36919788  0.29380599  0.48515707     0.37000
N227        N  0.34430542  0.27967603  0.50560166    -0.89500
H228        H  0.40941674  0.31154938  0.51665316     0.18100
H229        H  0.38147233  0.30245202  0.41391786     0.18100
N230        N  0.44567956  0.33407936  0.92527386    -0.88600
H231        H  0.35343425  0.28465555  0.52617931     0.35500
H232        H  0.35068899  0.25898242  0.50318285     0.40600
H233        H  0.42594065  0.34690416  0.91346491     0.40200
H234        H  0.45871143  0.31963892  0.91154039     0.35100
C235        C  0.47566206  0.40821272  0.03950245    -0.26600
C236        C  0.00280729  0.38562255  0.04106355    -0.14700
C237        C  0.02940317  0.38244715  0.06475712     0.35900
C238        C  0.02942119  0.40224946  0.08596220    -0.26100
C239        C  0.00257560  0.42501271  0.08433297    -0.15300
C240        C  0.47534095  0.42803352  0.06078693     0.37000
N241        N  0.44820079  0.45148776  0.05819219    -0.89500
H242        H  0.45541825  0.41074934  0.02121339     0.18100
H243        H  0.04999657  0.39952167  0.10406080     0.18100
N244        N  0.05566807  0.35877210  0.06771206    -0.88600
H245        H  0.42991137  0.45038338  0.03984951     0.35500
H246        H  0.46730489  0.46834167  0.05585038     0.40600
H247        H  0.04757125  0.34909354  0.08655371     0.40200
H248        H  0.08684140  0.36494575  0.06944842     0.35100
C249        C  0.00386954  0.36598636  0.51739712     0.02800
C250        C  0.46649778  0.35482831  0.50698191    -0.13300
C251        C  0.46780317  0.33584888  0.98486769     0.00300
C252        C  0.50683990  0.32791034  0.97355078    -0.11800
C253        C  0.04415642  0.33919859  0.98343953     0.02800
C254        C  0.04250060  0.35836552  0.50516753    -0.11300
H255        H  0.43655878  0.36059845  0.51632782     0.08400
H256        H  0.50839832  0.31211762  0.95765832     0.06000
H257        H  0.07143336  0.36706687  0.51277456     0.05800
C258        C  0.00732843  0.10462697  0.52317337     0.02800
C259        C  0.46986107  0.11446487  0.51087977    -0.13300
C260        C  0.47078761  0.13464775  0.99007847     0.00300
C261        C  0.00948693  0.14486162  0.98135054    -0.11800
C262        C  0.04703710  0.13554342  0.99369651     0.02800
C263        C  0.04595576  0.11542381  0.51459215    -0.11300
H264        H  0.43993817  0.10638270  0.51743927     0.08400
H265        H  0.01032034  0.16075472  0.96555364     0.06000
H266        H  0.07501670  0.10854074  0.52441093     0.05800
Fe267      Fe  0.30769452  0.23332145  0.89460880     1.65800
Fe268      Fe  0.20084164  0.23243431  0.89670059     1.73200
Fe269      Fe  0.25704351  0.23444325  0.95818910     1.54400
O270        O  0.30614841  0.20658051  0.96017550    -0.82000
O271        O  0.17734535  0.26514128  0.91891345    -0.80300
O272        O  0.33211778  0.20080565  0.91680192    -0.84500
O273        O  0.33788634  0.25982813  0.92128594    -0.79300
O274        O  0.21592132  0.20300270  0.96281506    -0.81100
O275        O  0.21974058  0.25886749  0.86528476    -0.83800
C276        C  0.33049875  0.27125217  0.94483124     0.96900
C277        C  0.33118246  0.19486612  0.94293298     1.04400
O278        O  0.25515280  0.23337388  0.91657214    -1.12800
O279        O  0.21844765  0.19959856  0.87263593    -0.71700
O280        O  0.28609151  0.20670289  0.86421850    -0.78700
O281        O  0.29833228  0.26603112  0.95947955    -0.79400
C282        C  0.25219537  0.19435746  0.85936460     0.95800
O283        O  0.28822704  0.26596930  0.87071437    -0.77400
O284        O  0.17430420  0.20573884  0.92499886    -0.82600
C285        C  0.18132217  0.27294006  0.94435262     0.98400
C286        C  0.18400526  0.19572826  0.94889506     1.04400
O287        O  0.20844629  0.26256989  0.96102092    -0.78200
C288        C  0.25324168  0.27104102  0.85878220     1.02700
C289        C  0.25487986  0.34998852  0.76838840     0.02800
C290        C  0.21663844  0.36023163  0.75753579    -0.13300
C291        C  0.21623611  0.37906830  0.73536169     0.00300
C292        C  0.25450381  0.38784672  0.72423195    -0.11800
C293        C  0.29290137  0.37798470  0.73489900     0.02800
C294        C  0.29297682  0.35876097  0.75673657    -0.11300
H295        H  0.18715316  0.35380990  0.76660690     0.08400
H296        H  0.25447558  0.40340736  0.70806631     0.06000
H297        H  0.32264776  0.35087275  0.76478088     0.05800
C298        C  0.24649950  0.11024052  0.77450264     0.02800
C299        C  0.20814456  0.10138475  0.76323314    -0.13300
C300        C  0.20780257  0.08106190  0.74253312     0.00300
C301        C  0.24596106  0.06986930  0.73298655    -0.11800
C302        C  0.28426642  0.07846819  0.74405226     0.02800
C303        C  0.28450294  0.09863231  0.76481757    -0.11300
H304        H  0.17872349  0.11043794  0.77032205     0.08400
H305        H  0.24584673  0.05395125  0.71720103     0.06000
H306        H  0.31419977  0.10529069  0.77338581     0.05800
Fe307      Fe  0.44742203  0.48306104  0.64491639     1.65800
Fe308      Fe  0.05414490  0.48176412  0.64546293     1.73200
Fe309      Fe  0.00003006  0.48099142  0.70783689     1.54400
O310        O  0.45681110  0.01247115  0.71147240    -0.82000
O311        O  0.08338480  0.45456851  0.67232475    -0.80300
O312        O  0.41715238  0.00823114  0.67317432    -0.84500
O313        O  0.42516158  0.44950641  0.66594218    -0.79300
O314        O  0.04748084  0.00895781  0.71133458    -0.81100
O315        O  0.03723702  0.44957357  0.62036704    -0.83800
C316        C  0.42759664  0.44209113  0.69166978     0.96900
C317        C  0.42435743  0.01861280  0.69710077     1.04400
O318        O  0.00053968  0.48195520  0.66616687    -1.12800
O319        O  0.03318841  0.00905426  0.61525258    -0.75300
O320        O  0.46481320  0.01688884  0.62213708    -0.78700
O321        O  0.45253933  0.45297667  0.70917684    -0.79400
C322        C  0.99937138  0.02210925  0.60998255     0.95800
O323        O  0.46911585  0.45781102  0.61323767    -0.77400
O324        O  0.07629584  0.01379607  0.66874608    -0.82600
C325        C  0.07542229  0.44326831  0.69574074     0.98400
C326        C  0.07307862  0.02035472  0.69465273     1.04400
O327        O  0.04293558  0.44925672  0.71007004    -0.78200
C328        C  0.00308794  0.44527505  0.60735824     1.02700
C329        C  0.33226904  0.06815550  0.70435919    -0.26600
C330        C  0.32370301  0.06615690  0.73329311    -0.14700
C331        C  0.35049930  0.05050647  0.75079922     0.35900
C332        C  0.38491815  0.03650029  0.73867959    -0.26100
C333        C  0.39214375  0.03721235  0.70932750    -0.15300
C334        C  0.36569663  0.05377065  0.69216407     0.37000
N335        N  0.37198500  0.05664794  0.66234345    -0.89500
H336        H  0.31181251  0.08034856  0.69092287     0.18100
H337        H  0.40471167  0.02375704  0.75198331     0.18100
N338        N  0.34162256  0.04798642  0.78048902    -0.88600
H339        H  0.36614133  0.03827220  0.65232351     0.35500
H340        H  0.40315557  0.06204961  0.65895415     0.40600
H341        H  0.36430365  0.03565893  0.79034995     0.40200
H342        H  0.31297748  0.03809280  0.78249659     0.35100
C343        C  0.16258836  0.07002658  0.70154490    -0.26600
C344        C  0.16810926  0.07046299  0.73095811    -0.14700
C345        C  0.13845772  0.05789676  0.74850134     0.35900
C346        C  0.10567785  0.04332220  0.73609394    -0.26100
C347        C  0.10216806  0.04080400  0.70649289    -0.15300
C348        C  0.12967104  0.05568701  0.68907519     0.37000
N349        N  0.12495688  0.05566146  0.65882419    -0.89500
H350        H  0.18503459  0.08023864  0.68820552     0.18100
H351        H  0.08433040  0.03256247  0.74974174     0.18100
N352        N  0.14296485  0.05876652  0.77875609    -0.88600
H353        H  0.14827791  0.06717366  0.64924725     0.35500
H354        H  0.09623920  0.06526970  0.65415074     0.40600
H355        H  0.17062979  0.04819787  0.78403678     0.40200
H356        H  0.11834300  0.04866100  0.78860221     0.35100
C357        C  0.34101642  0.38986684  0.69548745    -0.26600
C358        C  0.33239413  0.38997106  0.72458863    -0.14700
C359        C  0.35867687  0.40431007  0.74307152     0.35900
C360        C  0.39154025  0.41957345  0.73185943    -0.26100
C361        C  0.39834453  0.42125586  0.70247829    -0.15300
C362        C  0.37402788  0.40507498  0.68421614     0.37000
N363        N  0.38221712  0.40454414  0.65431654    -0.89500
H364        H  0.32102979  0.37847366  0.68143567     0.18100
H365        H  0.41024468  0.43153521  0.74616797     0.18100
N366        N  0.35050481  0.40453794  0.77299503    -0.88600
H367        H  0.36116928  0.39189542  0.64395706     0.35500
H368        H  0.41218852  0.39595015  0.65142872     0.40600
H369        H  0.32145842  0.41428331  0.77620548     0.40200
H370        H  0.37287763  0.41595948  0.78366754     0.35100
C371        C  0.14851040  0.40340906  0.74486642    -0.26600
C372        C  0.17622367  0.39149996  0.72523372    -0.14700
C373        C  0.16731767  0.39370080  0.69610084     0.35900
C374        C  0.13275800  0.40954369  0.68715277    -0.26100
C375        C  0.10651184  0.42307152  0.70668875    -0.15300
C376        C  0.11392138  0.41911922  0.73600891     0.37000
N377        N  0.08853818  0.43190858  0.75734104    -0.89500
H378        H  0.15505218  0.40172239  0.76730599     0.18100
H379        H  0.12695655  0.41191660  0.66469330     0.18100
N380        N  0.19392914  0.38025850  0.67572199    -0.88600
H381        H  0.05770099  0.42518467  0.75536016     0.35500
H382        H  0.08908744  0.45285841  0.75438737     0.40600
H383        H  0.18325821  0.38406341  0.65516361     0.40200
H384        H  0.19148581  0.35942810  0.67904253     0.35100
C385        C  0.27254319  0.15437353  0.79183038    -0.26600
C386        C  0.24725287  0.13178251  0.79624424    -0.14700
C387        C  0.22376602  0.12978746  0.82142508     0.35900
C388        C  0.22592277  0.15053814  0.84161271    -0.26100
C389        C  0.25173217  0.17296642  0.83747225    -0.15300
C390        C  0.27519201  0.17498837  0.81216777     0.37000
N391        N  0.30024993  0.19834856  0.80663200    -0.89500
H392        H  0.29020282  0.15595440  0.77231560     0.18100
H393        H  0.20787868  0.14896418  0.86095877     0.18100
N394        N  0.19840788  0.10650320  0.82661031    -0.88600
H395        H  0.31205967  0.19776797  0.78599668     0.35500
H396        H  0.32647164  0.19723879  0.81993209     0.40600
H397        H  0.21862834  0.08966116  0.82810167     0.40200
H398        H  0.18301849  0.10823101  0.84608402     0.35100
C399        C  0.22897547  0.30745604  0.78972850    -0.26600
C400        C  0.25458879  0.33017833  0.79196576    -0.14700
C401        C  0.27888348  0.33382087  0.81664420     0.35900
C402        C  0.27759492  0.31434269  0.83827134    -0.26100
C403        C  0.25183400  0.29164523  0.83607011    -0.15300
C404        C  0.22713298  0.28819889  0.81149938     0.37000
N405        N  0.20179083  0.26460184  0.80808265    -0.89500
H406        H  0.21058754  0.30458789  0.77069190     0.18100
H407        H  0.29650921  0.31701387  0.85710855     0.18100
N408        N  0.30433942  0.35738934  0.81980940    -0.88600
H409        H  0.18896317  0.26396046  0.78771745     0.35500
H410        H  0.17625296  0.26655482  0.82185697     0.40600
H411        H  0.28412951  0.37429218  0.82039108     0.40200
H412        H  0.32035768  0.35691596  0.83912425     0.35100
C413        C  0.10340359  0.14080350  0.95829413    -0.26600
C414        C  0.08701868  0.14774207  0.98490925    -0.14700
C415        C  0.10640650  0.16823532  0.00096595     0.35900
C416        C  0.14042501  0.18201791  0.98934353    -0.26100
C417        C  0.15505924  0.17630257  0.96194331    -0.15300
C418        C  0.13758860  0.15451845  0.94672933     0.37000
N419        N  0.15336524  0.14588574  0.91961287    -0.89500
H420        H  0.08884161  0.12492817  0.94609519     0.18100
H421        H  0.15378826  0.19857997  0.00118031     0.18100
N422        N  0.09152540  0.17644704  0.52844495    -0.88600
H423        H  0.16272705  0.12557953  0.92153085     0.35500
H424        H  0.18053340  0.15617060  0.91411183     0.40600
H425        H  0.06608767  0.16507476  0.53514184     0.40200
H426        H  0.08064113  0.19647380  0.52682928     0.35100
C427        C  0.36749321  0.17332819  0.98400857    -0.26600
C428        C  0.36245876  0.17500344  0.95446146    -0.14700
C429        C  0.39054453  0.16015239  0.93685404     0.35900
C430        C  0.42505696  0.14635666  0.94906177    -0.26100
C431        C  0.43141033  0.14639740  0.97840257    -0.15300
C432        C  0.40175858  0.15936494  0.99613183     0.37000
N433        N  0.40763531  0.15941774  0.52630071    -0.89500
H434        H  0.34597485  0.18422523  0.99782508     0.18100
H435        H  0.44762351  0.13588496  0.93561873     0.18100
N436        N  0.38459485  0.15952357  0.90671130    -0.88600
H437        H  0.38284873  0.16974804  0.53633104     0.35500
H438        H  0.43486115  0.17022143  0.53064316     0.40600
H439        H  0.35647795  0.14951820  0.90279173     0.40200
H440        H  0.40842698  0.14806445  0.89696401     0.35100
C441        C  0.47856648  0.08710561  0.56852819    -0.26600
C442        C  0.00570571  0.08344269  0.54536196    -0.14700
C443        C  0.03046139  0.05956546  0.54347238     0.35900
C444        C  0.02803412  0.04007977  0.56500642    -0.26100
C445        C  0.00085020  0.04366424  0.58819300    -0.15300
C446        C  0.47607053  0.06756014  0.59005368     0.37000
N447        N  0.44935669  0.07224585  0.61408957    -0.89500
H448        H  0.45980051  0.10555913  0.57006454     0.18100
H449        H  0.04688305  0.02167196  0.56336871     0.18100
N450        N  0.05729558  0.05494539  0.51942183    -0.88600
H451        H  0.43304917  0.09069919  0.61211789     0.35500
H452        H  0.46878782  0.07397223  0.63182855     0.40600
H453        H  0.03805148  0.05346082  0.50157744     0.40200
H454        H  0.07346255  0.03642790  0.52130584     0.35100
C455        C  0.12758609  0.30921042  0.93547889    -0.26600
C456        C  0.15173027  0.29417139  0.95508785    -0.14700
C457        C  0.14462681  0.29830861  0.98439263     0.35900
C458        C  0.11139673  0.31541004  0.99307242    -0.26100
C459        C  0.08489637  0.32818201  0.97330356    -0.15300
C460        C  0.09464226  0.32638049  0.94419528     0.37000
N461        N  0.07130148  0.34111420  0.92294246    -0.89500
H462        H  0.13351694  0.30711166  0.91300964     0.18100
H463        H  0.10410047  0.31709197  0.51540508     0.18100
N464        N  0.16929826  0.28407960  0.00531767    -0.88600
H465        H  0.09248941  0.35341424  0.91226355     0.35500
H466        H  0.04925379  0.35435991  0.93203677     0.40600
H467        H  0.16112448  0.26368874  0.00440298     0.40200
H468        H  0.16148200  0.29071014  0.52566684     0.35100
C469        C  0.40261066  0.30997207  0.99425935    -0.26600
C470        C  0.42910476  0.32257384  0.97473718    -0.14700
C471        C  0.42044349  0.32030828  0.94562146     0.35900
C472        C  0.38707223  0.30440314  0.93643482    -0.26100
C473        C  0.36172939  0.29060943  0.95580005    -0.15300
C474        C  0.36919752  0.29380620  0.98515719     0.37000
N475        N  0.34430485  0.27967640  0.00560177    -0.89500
H476        H  0.40941659  0.31154941  0.01665327     0.18100
H477        H  0.38147221  0.30245203  0.91391798     0.18100
N478        N  0.44567953  0.33407951  0.42527376    -0.88600
H479        H  0.35343366  0.28465596  0.02617946     0.35500
H480        H  0.35068822  0.25898279  0.00318305     0.40600
H481        H  0.42594059  0.34690420  0.41346479     0.40200
H482        H  0.45871164  0.31963911  0.41154028     0.35100
C483        C  0.47566254  0.40821321  0.53950195    -0.26600
C484        C  0.00280710  0.38562229  0.54106398    -0.14700
C485        C  0.02940352  0.38244728  0.56475734     0.35900
C486        C  0.02942118  0.40224962  0.58596242    -0.26100
C487        C  0.00257467  0.42501247  0.58433344    -0.15300
C488        C  0.47534168  0.42803410  0.56078635     0.37000
N489        N  0.44820210  0.45148860  0.55819142    -0.89500
H490        H  0.45541885  0.41074991  0.52121283     0.18100
H491        H  0.04999709  0.39952217  0.60406079     0.18100
N492        N  0.05566932  0.35877261  0.56771213    -0.88600
H493        H  0.42991289  0.45038436  0.53984860     0.35500
H494        H  0.46730658  0.46834232  0.55584972     0.40600
H495        H  0.04757316  0.34909391  0.58655387     0.40200
H496        H  0.08684245  0.36494671  0.56944827     0.35100
C497        C  0.00386973  0.86598656  0.01739667     0.02800
C498        C  0.46649774  0.85482800  0.00698211    -0.13300
C499        C  0.46780355  0.83584877  0.48486758     0.00300
C500        C  0.50684029  0.82791027  0.47355067    -0.11800
C501        C  0.04415679  0.83919888  0.48343932     0.02800
C502        C  0.04250080  0.85836578  0.00516709    -0.11300
H503        H  0.43655871  0.86059790  0.01632814     0.08400
H504        H  0.50839875  0.81211742  0.45765835     0.06000
H505        H  0.07143350  0.86706726  0.01277407     0.05800
C506        C  0.00732826  0.60462668  0.02317334     0.02800
C507        C  0.46986160  0.61446492  0.01087977    -0.13300
C508        C  0.47078753  0.63464721  0.49007826     0.00300
C509        C  0.00948733  0.64486176  0.48135048    -0.11800
C510        C  0.04703757  0.63554346  0.49369633     0.02800
C511        C  0.04595553  0.61542364  0.01459223    -0.11300
H512        H  0.43993877  0.60638262  0.01743923     0.08400
H513        H  0.01032066  0.66075491  0.46555362     0.06000
H514        H  0.07501646  0.60854069  0.02441111     0.05800
Fe515      Fe  0.30769486  0.73332112  0.39460893     1.65800
Fe516      Fe  0.20084193  0.73243420  0.39670067     1.73200
Fe517      Fe  0.25704379  0.73444340  0.45818920     1.54400
O518        O  0.30614869  0.70658062  0.46017580    -0.82000
O519        O  0.17734550  0.76514120  0.41891347    -0.80300
O520        O  0.33211803  0.70080549  0.41680225    -0.84500
O521        O  0.33788672  0.75982786  0.42128592    -0.79300
O522        O  0.21592162  0.70300289  0.46281524    -0.81100
O523        O  0.21974094  0.75886738  0.36528487    -0.83800
C524        C  0.33049919  0.77125202  0.44483116     0.96900
C525        C  0.33118274  0.69486614  0.44293334     1.04400
O526        O  0.25515311  0.73337377  0.41657225    -1.12800
O527        O  0.21844783  0.69959846  0.37263598    -0.71700
O528        O  0.28609187  0.70670237  0.36421883    -0.78700
O529        O  0.29833262  0.76603120  0.45947946    -0.79400
C530        C  0.25219561  0.69435711  0.35936484     0.95800
O531        O  0.28822753  0.76596886  0.37071428    -0.77400
O532        O  0.17430464  0.70573869  0.42499893    -0.82600
C533        C  0.18132244  0.77294021  0.44435254     0.98400
C534        C  0.18400575  0.69572824  0.44889517     1.04400
O535        O  0.20844664  0.76257016  0.46102087    -0.78200
C536        C  0.25324215  0.77104073  0.35878220     1.02700
C537        C  0.25488003  0.84998836  0.26838851     0.02800
C538        C  0.21663855  0.86023137  0.25753585    -0.13300
C539        C  0.21623615  0.87906790  0.23536161     0.00300
C540        C  0.25450381  0.88784630  0.22423180    -0.11800
C541        C  0.29290141  0.87798443  0.23489892     0.02800
C542        C  0.29297693  0.85876080  0.25673659    -0.11300
H543        H  0.18715328  0.85380966  0.26660702     0.08400
H544        H  0.25447553  0.90340685  0.20806606     0.06000
H545        H  0.32264790  0.85087262  0.26478087     0.05800
C546        C  0.24649889  0.61024056  0.27450260     0.02800
C547        C  0.20814391  0.60138498  0.26323301    -0.13300
C548        C  0.20780182  0.58106211  0.24253303     0.00300
C549        C  0.24596024  0.56986933  0.23298652    -0.11800
C550        C  0.28426563  0.57846815  0.24405224     0.02800
C551        C  0.28450226  0.59863223  0.26481757    -0.11300
H552        H  0.17872290  0.61043830  0.27032186     0.08400
H553        H  0.24584582  0.55395124  0.21720104     0.06000
H554        H  0.31419914  0.60529047  0.27338587     0.05800
Fe555      Fe  0.44742190  0.98306122  0.14491649     1.65800
Fe556      Fe  0.05414498  0.98176401  0.14546286     1.73200
Fe557      Fe  0.00003027  0.98099088  0.20783678     1.54400
O558        O  0.45681048  0.51247135  0.21147254    -0.82000
O559        O  0.08338520  0.95456844  0.17232468    -0.80300
O560        O  0.41715240  0.50823201  0.17317405    -0.84500
O561        O  0.42516128  0.94950669  0.16594236    -0.79300
O562        O  0.04748051  0.50895784  0.21133461    -0.81100
O563        O  0.03723740  0.94957343  0.12036692    -0.83800
C564        C  0.42759646  0.94209131  0.19166991     0.96900
C565        C  0.42435715  0.51861333  0.19710070     1.04400
O566        O  0.00053983  0.98195483  0.16616679    -1.12800
O567        O  0.03318852  0.50905431  0.11525268    -0.75300
O568        O  0.46481338  0.51688883  0.12213667    -0.78700
O569        O  0.45253930  0.95297677  0.20917696    -0.79400
C570        C  0.99937146  0.52210924  0.10998263     0.95800
O571        O  0.46911549  0.95781100  0.11323787    -0.77400
O572        O  0.07629574  0.51379605  0.16874617    -0.82600
C573        C  0.07542250  0.94326794  0.19574049     0.98400
C574        C  0.07307826  0.52035479  0.19465278     1.04400
O575        O  0.04293551  0.94925601  0.21006966    -0.78200
C576        C  0.00308847  0.94527516  0.10735785     1.02700
C577        C  0.33226907  0.56815629  0.20435941    -0.26600
C578        C  0.32370222  0.56615687  0.23329314    -0.14700
C579        C  0.35049789  0.55050588  0.25079912     0.35900
C580        C  0.38491693  0.53649990  0.23867950    -0.26100
C581        C  0.39214338  0.53721277  0.20932752    -0.15300
C582        C  0.36569693  0.55377169  0.19216427     0.37000
N583        N  0.37198634  0.55664996  0.16234386    -0.89500
H584        H  0.31181307  0.58034987  0.19092324     0.18100
H585        H  0.40470991  0.52375615  0.25198306     0.18100
N586        N  0.34162016  0.54798500  0.28048870    -0.88600
H587        H  0.36614320  0.53827449  0.15232316     0.35500
H588        H  0.40315701  0.56205183  0.15895528     0.40600
H589        H  0.36430086  0.53565708  0.29034958     0.40200
H590        H  0.31297496  0.53809149  0.28249552     0.35100
C591        C  0.16258753  0.57002691  0.20154483    -0.26600
C592        C  0.16810843  0.57046333  0.23095804    -0.14700
C593        C  0.13845685  0.55789722  0.24850131     0.35900
C594        C  0.10567703  0.54332261  0.23609394    -0.26100
C595        C  0.10216738  0.54080426  0.20649289    -0.15300
C596        C  0.12967024  0.55568730  0.18907515     0.37000
N597        N  0.12495593  0.55566174  0.15882416    -0.89500
H598        H  0.18503371  0.58023896  0.18820542     0.18100
H599        H  0.08432953  0.53256295  0.24974175     0.18100
N600        N  0.14296368  0.55876719  0.27875609    -0.88600
H601        H  0.14827691  0.56717402  0.14924717     0.35500
H602        H  0.09623822  0.56526989  0.15415073     0.40600
H603        H  0.17062875  0.54819854  0.28403699     0.40200
H604        H  0.11834193  0.54866180  0.28860218     0.35100
C605        C  0.34101650  0.88986678  0.19548742    -0.26600
C606        C  0.33239412  0.88997095  0.22458859    -0.14700
C607        C  0.35867665  0.90431008  0.24307151     0.35900
C608        C  0.39153996  0.91957358  0.23185948    -0.26100
C609        C  0.39834433  0.92125602  0.20247836    -0.15300
C610        C  0.37402783  0.90507508  0.18421618     0.37000
N611        N  0.38221713  0.90454428  0.15431657    -0.89500
H612        H  0.32103005  0.87847352  0.18143561     0.18100
H613        H  0.41024427  0.93153540  0.24616804     0.18100
N614        N  0.35050445  0.90453794  0.27299500    -0.88600
H615        H  0.36116953  0.89189547  0.14395711     0.35500
H616        H  0.41218865  0.89595039  0.15142883     0.40600
H617        H  0.32145803  0.91428324  0.27620537     0.40200
H618        H  0.37287717  0.91595955  0.28366755     0.35100
C619        C  0.14851047  0.90340869  0.24486626    -0.26600
C620        C  0.17622374  0.89149954  0.22523361    -0.14700
C621        C  0.16731780  0.89370034  0.19610071     0.35900
C622        C  0.13275827  0.90954333  0.18715256    -0.26100
C623        C  0.10651212  0.92307120  0.20668850    -0.15300
C624        C  0.11392153  0.91911888  0.23600868     0.37000
N625        N  0.08853824  0.93190822  0.25734076    -0.89500
H626        H  0.15505217  0.90172202  0.26730584     0.18100
H627        H  0.12695683  0.91191622  0.16469308     0.18100
N628        N  0.19392912  0.88025781  0.17572194    -0.88600
H629        H  0.05770108  0.92518426  0.25535982     0.35500
H630        H  0.08908745  0.95285805  0.25438708     0.40600
H631        H  0.18325824  0.88406272  0.15516351     0.40200
H632        H  0.19148547  0.85942749  0.17904257     0.35100
C633        C  0.27254356  0.65437313  0.29183074    -0.26600
C634        C  0.24725240  0.63178245  0.29624427    -0.14700
C635        C  0.22376499  0.62978758  0.32142490     0.35900
C636        C  0.22592203  0.65053813  0.34161265    -0.26100
C637        C  0.25173228  0.67296607  0.33747251    -0.15300
C638        C  0.27519275  0.67498778  0.31216827     0.37000
N639        N  0.30025180  0.69834756  0.30663295    -0.89500
H640        H  0.29020366  0.65595384  0.27231613     0.18100
H641        H  0.20787747  0.64896434  0.36095853     0.18100
N642        N  0.19840604  0.60650362  0.32660983    -0.88600
H643        H  0.31206196  0.69776691  0.28599771     0.35500
H644        H  0.32647320  0.69723719  0.31993325     0.40600
H645        H  0.21862593  0.58966131  0.32810130     0.40200
H646        H  0.18301631  0.60823157  0.34608342     0.35100
C647        C  0.22897550  0.80745601  0.28972871    -0.26600
C648        C  0.25458910  0.83017817  0.29196588    -0.14700
C649        C  0.27888435  0.83382044  0.31664414     0.35900
C650        C  0.27759588  0.81434219  0.33827121    -0.26100
C651        C  0.25183457  0.79164492  0.33607011    -0.15300
C652        C  0.22713317  0.78819878  0.31149952     0.37000
N653        N  0.20179078  0.76460185  0.30808281    -0.89500
H654        H  0.21058726  0.80458802  0.27069222     0.18100
H655        H  0.29651049  0.81701320  0.35710830     0.18100
N656        N  0.30434078  0.85738869  0.31980927    -0.88600
H657        H  0.18896290  0.76396060  0.28771773     0.35500
H658        H  0.17625309  0.76655488  0.32185736     0.40600
H659        H  0.28413115  0.87429169  0.32039123     0.40200
H660        H  0.32035939  0.85691510  0.33912397     0.35100
C661        C  0.10340446  0.64080335  0.45829424    -0.26600
C662        C  0.08701918  0.64774213  0.48490919    -0.14700
C663        C  0.10640676  0.66823551  0.50096587     0.35900
C664        C  0.14042541  0.68201804  0.48934356    -0.26100
C665        C  0.15505991  0.67630252  0.46194345    -0.15300
C666        C  0.13758954  0.65451827  0.44672952     0.37000
N667        N  0.15336654  0.64588540  0.41961320    -0.89500
H668        H  0.08884271  0.62492791  0.44609534     0.18100
H669        H  0.15378851  0.69858020  0.50118028     0.18100
N670        N  0.09152457  0.67644720  0.02844501    -0.88600
H671        H  0.16272835  0.62557919  0.42153139     0.35500
H672        H  0.18053473  0.65617023  0.41411224     0.40600
H673        H  0.06608687  0.66507488  0.03514184     0.40200
H674        H  0.08064020  0.69647390  0.02682920     0.35100
C675        C  0.36749451  0.67332899  0.48400892    -0.26600
C676        C  0.36245905  0.67500353  0.45446186    -0.14700
C677        C  0.39054382  0.66015175  0.43685437     0.35900
C678        C  0.42505608  0.64635572  0.44906192    -0.26100
C679        C  0.43141033  0.64639703  0.47840261    -0.15300
C680        C  0.40175982  0.65936556  0.49613200     0.37000
N681        N  0.40763441  0.65941693  0.02630096    -0.89500
H682        H  0.34597703  0.68422671  0.49782548     0.18100
H683        H  0.44762185  0.63588338  0.43561882     0.18100
N684        N  0.38459326  0.65952244  0.40671172    -0.88600
H685        H  0.38284757  0.66974691  0.03633121     0.35500
H686        H  0.43486008  0.67022074  0.03064383     0.40600
H687        H  0.35647588  0.64951742  0.40279276     0.40200
H688        H  0.40842468  0.64806274  0.39696437     0.35100
C689        C  0.47856688  0.58710550  0.06852788    -0.26600
C690        C  0.00570567  0.58344250  0.04536199    -0.14700
C691        C  0.03046116  0.55956520  0.04347231     0.35900
C692        C  0.02803395  0.54007958  0.06500640    -0.26100
C693        C  0.00085030  0.54366421  0.08819311    -0.15300
C694        C  0.47607086  0.56756004  0.09005334     0.37000
N695        N  0.44935687  0.57224569  0.11408917    -0.89500
H696        H  0.45980073  0.60555896  0.07006417     0.18100
H697        H  0.04688269  0.52167169  0.06336864     0.18100
N698        N  0.05729514  0.55494503  0.01942165    -0.88600
H699        H  0.43304929  0.59069903  0.11211746     0.35500
H700        H  0.46878790  0.57397211  0.13182815     0.40600
H701        H  0.03805091  0.55346050  0.00157733     0.40200
H702        H  0.07346205  0.53642753  0.02130563     0.35100
C703        C  0.12758596  0.80921034  0.43547855    -0.26600
C704        C  0.15173060  0.79417169  0.45508760    -0.14700
C705        C  0.14462764  0.79830942  0.48439236     0.35900
C706        C  0.11139766  0.81541095  0.49307210    -0.26100
C707        C  0.08489688  0.82818254  0.47330323    -0.15300
C708        C  0.09464227  0.82638054  0.44419491     0.37000
N709        N  0.07130092  0.84111383  0.42294205    -0.89500
H710        H  0.13351634  0.80711116  0.41300928     0.18100
H711        H  0.10410139  0.81709279  0.01540487     0.18100
N712        N  0.16929943  0.78408077  0.50531750    -0.88600
H713        H  0.09248861  0.85341364  0.41226255     0.35500
H714        H  0.04925363  0.85435974  0.43203634     0.40600
H715        H  0.16112552  0.76368992  0.50440327     0.40200
H716        H  0.16148398  0.79071188  0.02566672     0.35100
C717        C  0.40261138  0.80997165  0.49425924    -0.26600
C718        C  0.42910524  0.82257362  0.47473708    -0.14700
C719        C  0.42044390  0.82030816  0.44562135     0.35900
C720        C  0.38707265  0.80440302  0.43643470    -0.26100
C721        C  0.36172998  0.79060915  0.45579994    -0.15300
C722        C  0.36919836  0.79380569  0.48515707     0.37000
N723        N  0.34430612  0.77967554  0.50560164    -0.89500
H724        H  0.40941742  0.81154889  0.51665315     0.18100
H725        H  0.38147247  0.80245204  0.41391787     0.18100
N726        N  0.44567904  0.83407970  0.92527400    -0.88600
H727        H  0.35343516  0.78465486  0.52617932     0.35500
H728        H  0.35068969  0.75898196  0.50318261     0.40600
H729        H  0.42593997  0.84690448  0.91346531     0.40200
H730        H  0.45871104  0.81963939  0.91154026     0.35100
C731        C  0.47566156  0.90821268  0.03950249    -0.26600
C732        C  0.00280733  0.88562253  0.04106347    -0.14700
C733        C  0.02940358  0.88244738  0.06475688     0.35900
C734        C  0.02942146  0.90224972  0.08596192    -0.26100
C735        C  0.00257530  0.92501273  0.08433289    -0.15300
C736        C  0.47534048  0.92803348  0.06078697     0.37000
N737        N  0.44819999  0.95148758  0.05819238    -0.89500
H738        H  0.45541755  0.91074923  0.02121351     0.18100
H739        H  0.04999726  0.89952213  0.10406033     0.18100
N740        N  0.05566909  0.85877258  0.06771167    -0.88600
H741        H  0.42991033  0.95038307  0.03984979     0.35500
H742        H  0.46730379  0.96834157  0.05585045     0.40600
H743        H  0.04757271  0.84909389  0.08655338     0.40200
H744        H  0.08684226  0.86494653  0.06944786     0.35100
C745        C  0.00386963  0.86598640  0.51739686     0.02800
C746        C  0.46649809  0.85482812  0.50698189    -0.13300
C747        C  0.46780327  0.83584876  0.98486770     0.00300
C748        C  0.50684001  0.82791041  0.97355068    -0.11800
C749        C  0.04415684  0.83919885  0.98343929     0.02800
C750        C  0.04250073  0.85836564  0.50516730    -0.11300
H751        H  0.43655911  0.86059810  0.51632794     0.08400
H752        H  0.50839849  0.81211768  0.95765823     0.06000
H753        H  0.07143344  0.86706699  0.51277442     0.05800
C754        C  0.00732892  0.60462683  0.52317304     0.02800
C755        C  0.46986108  0.61446478  0.51087977    -0.13300
C756        C  0.47078785  0.63464754  0.99007846     0.00300
C757        C  0.00948644  0.64486140  0.98135058    -0.11800
C758        C  0.04703670  0.63554334  0.99369655     0.02800
C759        C  0.04595627  0.61542369  0.51459192    -0.11300
H760        H  0.43993818  0.60638263  0.51743930     0.08400
H761        H  0.01031965  0.66075451  0.96555368     0.06000
H762        H  0.07501719  0.60854062  0.52441073     0.05800
Fe763      Fe  0.30769466  0.73332105  0.89460910     1.65800
Fe764      Fe  0.20084171  0.73243411  0.89670074     1.73200
Fe765      Fe  0.25704345  0.73444319  0.95818940     1.54400
O766        O  0.30614790  0.70658005  0.96017600    -0.82000
O767        O  0.17734537  0.76514110  0.91891357    -0.80300
O768        O  0.33211800  0.70080556  0.91680255    -0.84500
O769        O  0.33788637  0.75982792  0.92128600    -0.79300
O770        O  0.21592068  0.70300297  0.96281547    -0.81100
O771        O  0.21974074  0.75886728  0.86528497    -0.83800
C772        C  0.33049907  0.77125182  0.94483141     0.96900
C773        C  0.33118234  0.69486588  0.94293356     1.04400
O774        O  0.25515287  0.73337363  0.91657240    -1.12800
O775        O  0.21844756  0.69959842  0.87263597    -0.71700
O776        O  0.28609172  0.70670223  0.86421907    -0.78700
O777        O  0.29833281  0.76603069  0.95947988    -0.79400
C778        C  0.25219542  0.69435710  0.85936489     0.95800
O779        O  0.28822737  0.76596867  0.87071426    -0.77400
O780        O  0.17430419  0.70573859  0.92499892    -0.82600
C781        C  0.18132256  0.77294032  0.94435257     0.98400
C782        C  0.18400491  0.69572829  0.94889530     1.04400
O783        O  0.20844682  0.76257036  0.96102090    -0.78200
C784        C  0.25324195  0.77104058  0.85878223     1.02700
C785        C  0.25487974  0.84998832  0.76838867     0.02800
C786        C  0.21663826  0.86023123  0.75753596    -0.13300
C787        C  0.21623582  0.87906789  0.73536185     0.00300
C788        C  0.25450347  0.88784644  0.72423215    -0.11800
C789        C  0.29290109  0.87798457  0.73489921     0.02800
C790        C  0.29297664  0.85876089  0.75673684    -0.11300
H791        H  0.18715302  0.85380937  0.76660703     0.08400
H792        H  0.25447513  0.90340708  0.70806651     0.06000
H793        H  0.32264761  0.85087274  0.76478115     0.05800
C794        C  0.24649941  0.61024065  0.77450255     0.02800
C795        C  0.20814448  0.60138495  0.76323301    -0.13300
C796        C  0.20780245  0.58106202  0.74253308     0.00300
C797        C  0.24596089  0.56986927  0.73298660    -0.11800
C798        C  0.28426625  0.57846816  0.74405232     0.02800
C799        C  0.28450280  0.59863235  0.76481755    -0.11300
H800        H  0.17872343  0.61043822  0.77032187     0.08400
H801        H  0.24584654  0.55395118  0.71720113     0.06000
H802        H  0.31419965  0.60529068  0.77338581     0.05800
Fe803      Fe  0.44742208  0.98306088  0.64491626     1.65800
Fe804      Fe  0.05414493  0.98176392  0.64546291     1.73200
Fe805      Fe  0.00003028  0.98099110  0.70783687     1.54400
O806        O  0.45681107  0.51247122  0.71147257    -0.82000
O807        O  0.08338502  0.95456839  0.67232482    -0.80300
O808        O  0.41715241  0.50823135  0.67317444    -0.84500
O809        O  0.42516159  0.94950622  0.66594203    -0.79300
O810        O  0.04748027  0.50895835  0.71133456    -0.81100
O811        O  0.03723717  0.94957324  0.62036718    -0.83800
C812        C  0.42759644  0.94209105  0.69166967     0.96900
C813        C  0.42435745  0.51861294  0.69710092     1.04400
O814        O  0.00053981  0.98195492  0.66616686    -1.12800
O815        O  0.03318862  0.50905459  0.61525274    -0.75300
O816        O  0.46481315  0.51688896  0.62213714    -0.78700
O817        O  0.45253912  0.95297661  0.70917673    -0.79400
C818        C  0.99937154  0.52210941  0.60998244     0.95800
O819        O  0.46911594  0.95781088  0.61323754    -0.77400
O820        O  0.07629605  0.51379609  0.66874622    -0.82600
C821        C  0.07542234  0.94326799  0.69574068     0.98400
C822        C  0.07307842  0.52035500  0.69465277     1.04400
O823        O  0.04293548  0.94925625  0.71006990    -0.78200
C824        C  0.00308822  0.94527494  0.60735814     1.02700
C825        C  0.33226919  0.56815574  0.70435938    -0.26600
C826        C  0.32370286  0.56615688  0.73329322    -0.14700
C827        C  0.35049902  0.55050636  0.75079933     0.35900
C828        C  0.38491789  0.53650017  0.73867973    -0.26100
C829        C  0.39214376  0.53721246  0.70932767    -0.15300
C830        C  0.36569690  0.55377100  0.69216428     0.37000
N831        N  0.37198580  0.55664877  0.66234375    -0.89500
H832        H  0.31181287  0.58034898  0.69092309     0.18100
H833        H  0.40471123  0.52375677  0.75198342     0.18100
N834        N  0.34162205  0.54798623  0.78048909    -0.88600
H835        H  0.36614238  0.53827311  0.65232341     0.35500
H836        H  0.40315632  0.56205054  0.65895479     0.40600
H837        H  0.36430316  0.53565872  0.79035010     0.40200
H838        H  0.31297702  0.53809263  0.78249652     0.35100
C839        C  0.16258830  0.57002678  0.70154488    -0.26600
C840        C  0.16810912  0.57046320  0.73095809    -0.14700
C841        C  0.13845758  0.55789703  0.74850133     0.35900
C842        C  0.10567765  0.54332252  0.73609395    -0.26100
C843        C  0.10216789  0.54080429  0.70649290    -0.15300
C844        C  0.12967099  0.55568719  0.68907519     0.37000
N845        N  0.12495690  0.55566156  0.65882419    -0.89500
H846        H  0.18503455  0.58023882  0.68820551     0.18100
H847        H  0.08433018  0.53256282  0.74974176     0.18100
N848        N  0.14296462  0.55876682  0.77875610    -0.88600
H849        H  0.14827797  0.56717373  0.64924726     0.35500
H850        H  0.09623924  0.56526980  0.65415069     0.40600
H851        H  0.17062972  0.54819820  0.78403683     0.40200
H852        H  0.11834292  0.54866131  0.78860219     0.35100
C853        C  0.34101576  0.88986703  0.69548750    -0.26600
C854        C  0.33239379  0.88997104  0.72458874    -0.14700
C855        C  0.35867674  0.90430995  0.74307156     0.35900
C856        C  0.39154006  0.91957337  0.73185939    -0.26100
C857        C  0.39834411  0.92125589  0.70247821    -0.15300
C858        C  0.37402713  0.90507519  0.68421611     0.37000
N859        N  0.38221592  0.90454451  0.65431644    -0.89500
H860        H  0.32102896  0.87847399  0.68143573     0.18100
H861        H  0.41024472  0.93153500  0.74616789     0.18100
N862        N  0.35050513  0.90453762  0.77299514    -0.88600
H863        H  0.36116791  0.89189593  0.64395702     0.35500
H864        H  0.41218723  0.89595046  0.65142838     0.40600
H865        H  0.32145870  0.91428293  0.77620586     0.40200
H866        H  0.37287804  0.91595908  0.78366757     0.35100
C867        C  0.14850993  0.90340845  0.74486648    -0.26600
C868        C  0.17622339  0.89149947  0.72523383    -0.14700
C869        C  0.16731764  0.89370042  0.69610091     0.35900
C870        C  0.13275812  0.90954339  0.68715275    -0.26100
C871        C  0.10651179  0.92307114  0.70668869    -0.15300
C872        C  0.11392097  0.91911862  0.73600889     0.37000
N873        N  0.08853747  0.93190780  0.75734098    -0.89500
H874        H  0.15505154  0.90172168  0.76730607     0.18100
H875        H  0.12695689  0.91191637  0.66469325     0.18100
N876        N  0.19392917  0.88025802  0.67572218    -0.88600
H877        H  0.05770037  0.92518392  0.75535989     0.35500
H878        H  0.08908679  0.95285768  0.75438750     0.40600
H879        H  0.18325840  0.88406303  0.65516367     0.40200
H880        H  0.19148563  0.85942772  0.67904267     0.35100
C881        C  0.27254333  0.65437348  0.79183056    -0.26600
C882        C  0.24725280  0.63178253  0.79624423    -0.14700
C883        C  0.22376582  0.62978740  0.82142500     0.35900
C884        C  0.22592265  0.65053794  0.84161278    -0.26100
C885        C  0.25173221  0.67296616  0.83747247    -0.15300
C886        C  0.27519223  0.67498818  0.81216808     0.37000
N887        N  0.30025057  0.69834824  0.80663261    -0.89500
H888        H  0.29020314  0.65595438  0.77231585     0.18100
H889        H  0.20787845  0.64896394  0.86095878     0.18100
N890        N  0.19840737  0.60650324  0.82660998    -0.88600
H891        H  0.31206055  0.69776771  0.78599732     0.35500
H892        H  0.32647212  0.69723818  0.81993282     0.40600
H893        H  0.21862759  0.58966105  0.82810127     0.40200
H894        H  0.18301781  0.60823102  0.84608365     0.35100
C895        C  0.22897572  0.80745569  0.78972860    -0.26600
C896        C  0.25458881  0.83017808  0.79196599    -0.14700
C897        C  0.27888350  0.83382057  0.81664445     0.35900
C898        C  0.27759511  0.81434230  0.83827150    -0.26100
C899        C  0.25183433  0.79164480  0.83607018    -0.15300
C900        C  0.22713337  0.78819846  0.81149941     0.37000
N901        N  0.20179146  0.76460132  0.80808261    -0.89500
H902        H  0.21058787  0.80458755  0.77069196     0.18100
H903        H  0.29650934  0.81701345  0.85710875     0.18100
N904        N  0.30433923  0.85738912  0.81980978    -0.88600
H905        H  0.18896375  0.76395999  0.78771742     0.35500
H906        H  0.17625362  0.76655415  0.82185696     0.40600
H907        H  0.28412920  0.87429188  0.82039157     0.40200
H908        H  0.32035746  0.85691568  0.83912467     0.35100
C909        C  0.10340339  0.64080350  0.95829442    -0.26600
C910        C  0.08701815  0.64774219  0.98490939    -0.14700
C911        C  0.10640556  0.66823568  0.00096599     0.35900
C912        C  0.14042413  0.68201828  0.98934365    -0.26100
C913        C  0.15505878  0.67630271  0.96194357    -0.15300
C914        C  0.13758839  0.65451845  0.94672967     0.37000
N915        N  0.15336539  0.64588558  0.91961337    -0.89500
H916        H  0.08884172  0.62492801  0.94609553     0.18100
H917        H  0.15378713  0.69858047  0.00118036     0.18100
N918        N  0.09152582  0.67644707  0.52844489    -0.88600
H919        H  0.16272726  0.62557934  0.92153161     0.35500
H920        H  0.18053356  0.65617038  0.91411241     0.40600
H921        H  0.06608801  0.66507476  0.53514174     0.40200
H922        H  0.08064158  0.69647376  0.52682911     0.35100
C923        C  0.36749374  0.67332825  0.98400904    -0.26600
C924        C  0.36245879  0.67500327  0.95446197    -0.14700
C925        C  0.39054417  0.66015203  0.93685445     0.35900
C926        C  0.42505664  0.64635623  0.94906203    -0.26100
C927        C  0.43141051  0.64639721  0.97840277    -0.15300
C928        C  0.40175924  0.65936502  0.99613215     0.37000
N929        N  0.40763571  0.65941801  0.52630073    -0.89500
H930        H  0.34597565  0.68422545  0.99782560     0.18100
H931        H  0.44762283  0.63588429  0.93561892     0.18100
N932        N  0.38459398  0.65952292  0.90671175    -0.88600
H933        H  0.38284936  0.66974852  0.53633102     0.35500
H934        H  0.43486178  0.67022156  0.53064307     0.40600
H935        H  0.35647687  0.64951759  0.90279255     0.40200
H936        H  0.40842574  0.64806361  0.89696441     0.35100
C937        C  0.47856683  0.58710581  0.56852838    -0.26600
C938        C  0.00570615  0.58344261  0.54536168    -0.14700
C939        C  0.03046196  0.55956542  0.54347226     0.35900
C940        C  0.02803464  0.54007984  0.56500639    -0.26100
C941        C  0.00085050  0.54366434  0.58819286    -0.15300
C942        C  0.47607086  0.56756034  0.59005386     0.37000
N943        N  0.44935758  0.57224617  0.61409000    -0.89500
H944        H  0.45980118  0.60555946  0.57006486     0.18100
H945        H  0.04688372  0.52167208  0.56336884     0.18100
N946        N  0.05729631  0.55494527  0.51942180    -0.88600
H947        H  0.43305032  0.59069968  0.61211850     0.35500
H948        H  0.46878903  0.57397235  0.63182877     0.40600
H949        H  0.03805231  0.55346058  0.50157737     0.40200
H950        H  0.07346337  0.53642782  0.52130594     0.35100
C951        C  0.12758604  0.80921039  0.93547852    -0.26600
C952        C  0.15173081  0.79417185  0.95508757    -0.14700
C953        C  0.14462805  0.79830976  0.98439232     0.35900
C954        C  0.11139794  0.81541118  0.99307204    -0.26100
C955        C  0.08489693  0.82818255  0.97330318    -0.15300
C956        C  0.09464228  0.82638053  0.94419486     0.37000
N957        N  0.07130091  0.84111373  0.92294196    -0.89500
H958        H  0.13351636  0.80711117  0.91300926     0.18100
H959        H  0.10410093  0.81709244  0.51540492     0.18100
N960        N  0.16930026  0.78408144  0.00531746    -0.88600
H961        H  0.09248843  0.85341364  0.91226256     0.35500
H962        H  0.04925333  0.85435955  0.93203626     0.40600
H963        H  0.16112666  0.76369056  0.00440354     0.40200
H964        H  0.16148292  0.79071097  0.52566673     0.35100
C965        C  0.40261140  0.80997139  0.99425944    -0.26600
C966        C  0.42910500  0.82257355  0.97473727    -0.14700
C967        C  0.42044341  0.82030825  0.94562156     0.35900
C968        C  0.38707222  0.80440304  0.93643495    -0.26100
C969        C  0.36172979  0.79060901  0.95580019    -0.15300
C970        C  0.36919833  0.79380547  0.98515731     0.37000
N971        N  0.34430619  0.77967531  0.00560191    -0.89500
H972        H  0.40941766  0.81154850  0.01665332     0.18100
H973        H  0.38147190  0.80245214  0.91391813     0.18100
N974        N  0.44567986  0.83407937  0.42527377    -0.88600
H975        H  0.35343522  0.78465463  0.02617954     0.35500
H976        H  0.35068980  0.75898170  0.00318284     0.40600
H977        H  0.42594102  0.84690412  0.41346488     0.40200
H978        H  0.45871192  0.81963895  0.41154023     0.35100
C979        C  0.47566266  0.90821317  0.53950183    -0.26600
C980        C  0.00280713  0.88562226  0.54106377    -0.14700
C981        C  0.02940325  0.88244705  0.56475723     0.35900
C982        C  0.02942110  0.90224936  0.58596232    -0.26100
C983        C  0.00257501  0.92501241  0.58433326    -0.15300
C984        C  0.47534180  0.92803399  0.56078630     0.37000
N985        N  0.44820213  0.95148846  0.55819144    -0.89500
H986        H  0.45541896  0.91074988  0.52121272     0.18100
H987        H  0.04999678  0.89952174  0.60406078     0.18100
N988        N  0.05566856  0.85877217  0.56771210    -0.88600
H989        H  0.42991295  0.95038427  0.53984867     0.35500
H990        H  0.46730662  0.96834222  0.55584979     0.40600
H991        H  0.04757196  0.84909352  0.58655376     0.40200
H992        H  0.08684177  0.86494602  0.56944843     0.35100
C993        C  0.50386946  0.36598632  0.01739717     0.02800
C994        C  0.96649781  0.35482850  0.00698166    -0.13300
C995        C  0.96780338  0.33584876  0.48486777     0.00300
C996        C  0.00684008  0.32791037  0.47355075    -0.11800
C997        C  0.54415637  0.33919859  0.48343965     0.02800
C998        C  0.54250052  0.35836539  0.00516766    -0.11300
H999        H  0.93655883  0.36059871  0.01632756     0.08400
H1000       H  0.00839849  0.31211766  0.45765826     0.06000
H1001       H  0.57143330  0.36706667  0.01277476     0.05800
C1002       C  0.50732854  0.10462690  0.02317314     0.02800
C1003       C  0.96986103  0.11446526  0.01088011    -0.13300
C1004       C  0.97078737  0.13464779  0.49007875     0.00300
C1005       C  0.50948679  0.14486138  0.48135028    -0.11800
C1006       C  0.54703698  0.13554328  0.49369630     0.02800
C1007       C  0.54595587  0.11542375  0.01459198    -0.11300
H1008       H  0.93993811  0.10638314  0.01743963     0.08400
H1009       H  0.51032008  0.16075450  0.46555340     0.06000
H1010       H  0.57501676  0.10854072  0.02441086     0.05800
Fe1011     Fe  0.80769452  0.23332144  0.39460895     1.65800
Fe1012     Fe  0.70084157  0.23243431  0.39670074     1.73200
Fe1013     Fe  0.75704343  0.23444329  0.45818929     1.54400
O1014       O  0.80614799  0.20658029  0.46017566    -0.82000
O1015       O  0.67734515  0.26514117  0.41891371    -0.80300
O1016       O  0.83211791  0.20080577  0.41680216    -0.84500
O1017       O  0.83788626  0.25982818  0.42128599    -0.79300
O1018       O  0.71592092  0.20300295  0.46281529    -0.81100
O1019       O  0.71974048  0.25886764  0.36528507    -0.83800
C1020       C  0.83049890  0.27125208  0.44483137     0.96900
C1021       C  0.83118228  0.19486605  0.44293317     1.04400
O1022       O  0.75515275  0.23337387  0.41657231    -1.12800
O1023       O  0.71844762  0.19959870  0.37263590    -0.71700
O1024       O  0.78609161  0.20670281  0.36421867    -0.78700
O1025       O  0.79833259  0.26603094  0.45947981    -0.79400
C1026       C  0.75219539  0.19435754  0.35936465     0.95800
O1027       O  0.78822705  0.26596920  0.37071445    -0.77400
O1028       O  0.67430418  0.20573867  0.42499888    -0.82600
C1029       C  0.68132220  0.27294018  0.44435278     0.98400
C1030       C  0.68400509  0.19572831  0.44889519     1.04400
O1031       O  0.70844652  0.26257020  0.46102107    -0.78200
C1032       C  0.75324165  0.27104106  0.35878241     1.02700
C1033       C  0.75487984  0.34998846  0.26838858     0.02800
C1034       C  0.71663845  0.36023156  0.25753594    -0.13300
C1035       C  0.71623620  0.37906816  0.23536176     0.00300
C1036       C  0.75450392  0.38784649  0.22423197    -0.11800
C1037       C  0.79290145  0.37798442  0.23489902     0.02800
C1038       C  0.79297680  0.35876076  0.25673666    -0.11300
H1039       H  0.68715316  0.35380991  0.26660711     0.08400
H1040       H  0.75447573  0.40340711  0.20806630     0.06000
H1041       H  0.82264769  0.35087248  0.26478097     0.05800
C1042       C  0.74649950  0.11024070  0.27450267     0.02800
C1043       C  0.70814456  0.10138481  0.26323330    -0.13300
C1044       C  0.70780255  0.08106191  0.24253334     0.00300
C1045       C  0.74596101  0.06986930  0.23298674    -0.11800
C1046       C  0.78426638  0.07846828  0.24405237     0.02800
C1047       C  0.78450294  0.09863252  0.26481757    -0.11300
H1048       H  0.67872348  0.11043796  0.27032227     0.08400
H1049       H  0.74584664  0.05395121  0.21720126     0.06000
H1050       H  0.81419980  0.10529098  0.27338571     0.05800
Fe1051     Fe  0.94742206  0.48306088  0.14491632     1.65800
Fe1052     Fe  0.55414513  0.48176400  0.14546301     1.73200
Fe1053     Fe  0.50003023  0.48099138  0.20783691     1.54400
O1054       O  0.95681098  0.01247111  0.21147253    -0.82000
O1055       O  0.58338502  0.45456832  0.17232474    -0.80300
O1056       O  0.91715222  0.00823112  0.17317446    -0.84500
O1057       O  0.92516167  0.44950619  0.16594211    -0.79300
O1058       O  0.54748069  0.00895795  0.21133474    -0.81100
O1059       O  0.53723729  0.44957348  0.12036708    -0.83800
C1060       C  0.92759673  0.44209087  0.19166970     0.96900
C1061       C  0.92435729  0.01861276  0.19710091     1.04400
O1062       O  0.50053985  0.48195514  0.16616689    -1.12800
O1063       O  0.53318848  0.00905454  0.11525281    -0.75300
O1064       O  0.96481295  0.01688897  0.12213725    -0.78700
O1065       O  0.95253942  0.45297643  0.20917677    -0.79400
C1066       C  0.49937146  0.02210950  0.10998269     0.95800
O1067       O  0.96911598  0.45781089  0.11323761    -0.77400
O1068       O  0.57629604  0.01379604  0.16874632    -0.82600
C1069       C  0.57542256  0.44326823  0.19574078     0.98400
C1070       C  0.57307864  0.02035477  0.19465294     1.04400
O1071       O  0.54293592  0.44925674  0.21007012    -0.78200
C1072       C  0.50308823  0.44527499  0.10735826     1.02700
C1073       C  0.83226896  0.06815555  0.20435931    -0.26600
C1074       C  0.82370297  0.06615699  0.23329323    -0.14700
C1075       C  0.85049929  0.05050660  0.25079935     0.35900
C1076       C  0.88491809  0.03650035  0.23867973    -0.26100
C1077       C  0.89214360  0.03721233  0.20932761    -0.15300
C1078       C  0.86569643  0.05377062  0.19216417     0.37000
N1079       N  0.87198462  0.05664784  0.16234351    -0.89500
H1080       H  0.81181246  0.08034863  0.19092298     0.18100
H1081       H  0.90471162  0.02375710  0.25198344     0.18100
N1082       N  0.84162247  0.04798657  0.28048914    -0.88600
H1083       H  0.86614091  0.03827208  0.15232363     0.35500
H1084       H  0.90315517  0.06204952  0.15895410     0.40600
H1085       H  0.86430361  0.03565909  0.29035011     0.40200
H1086       H  0.81297748  0.03809295  0.28249666     0.35100
C1087       C  0.66258823  0.07002676  0.20154514    -0.26600
C1088       C  0.66810922  0.07046304  0.23095835    -0.14700
C1089       C  0.63845784  0.05789669  0.24850158     0.35900
C1090       C  0.60567794  0.04332217  0.23609416    -0.26100
C1091       C  0.60216805  0.04080407  0.20649310    -0.15300
C1092       C  0.62967093  0.05568717  0.18907541     0.37000
N1093       N  0.62495673  0.05566165  0.15882442    -0.89500
H1094       H  0.68503439  0.08023889  0.18820577     0.18100
H1095       H  0.58433061  0.03256233  0.24974194     0.18100
N1096       N  0.64296507  0.05876627  0.27875634    -0.88600
H1097       H  0.64827771  0.06717392  0.14924747     0.35500
H1098       H  0.59623902  0.06526979  0.15415095     0.40600
H1099       H  0.67063015  0.04819762  0.28403693     0.40200
H1100       H  0.61834338  0.04866067  0.28860242     0.35100
C1101       C  0.84101631  0.38986667  0.19548738    -0.26600
C1102       C  0.83239431  0.38997067  0.22458860    -0.14700
C1103       C  0.85867743  0.40430940  0.24307149     0.35900
C1104       C  0.89154076  0.41957282  0.23185935    -0.26100
C1105       C  0.89834463  0.42125554  0.20247818    -0.15300
C1106       C  0.87402771  0.40507484  0.18421603     0.37000
N1107       N  0.88221662  0.40454415  0.15431638    -0.89500
H1108       H  0.82102948  0.37847366  0.18143559     0.18100
H1109       H  0.91024550  0.43153436  0.24616789     0.18100
N1110       N  0.85050587  0.40453698  0.27299508    -0.88600
H1111       H  0.86116875  0.39189554  0.14395695     0.35500
H1112       H  0.91218804  0.39595011  0.15142840     0.40600
H1113       H  0.82145967  0.41428248  0.27620584     0.40200
H1114       H  0.87287899  0.41595825  0.28366755     0.35100
C1115       C  0.64851095  0.40340933  0.24486655    -0.26600
C1116       C  0.67622385  0.39149990  0.22523384    -0.14700
C1117       C  0.66731761  0.39370047  0.19610098     0.35900
C1118       C  0.63275796  0.40954337  0.18715289    -0.26100
C1119       C  0.60651210  0.42307148  0.20668886    -0.15300
C1120       C  0.61392193  0.41911947  0.23600904     0.37000
N1121       N  0.58853901  0.43190910  0.25734114    -0.89500
H1122       H  0.65505303  0.40172288  0.26730611     0.18100
H1123       H  0.62695628  0.41191607  0.16469342     0.18100
N1124       N  0.69392879  0.38025789  0.17572216    -0.88600
H1125       H  0.55770179  0.42518521  0.25536051     0.35500
H1126       H  0.58908832  0.45285890  0.25438721     0.40600
H1127       H  0.68325763  0.38406255  0.15516378     0.40200
H1128       H  0.69148547  0.35942752  0.17904301     0.35100
C1129       C  0.77254301  0.15437379  0.29183033    -0.26600
C1130       C  0.74725282  0.13178271  0.29624423    -0.14700
C1131       C  0.72376608  0.12978760  0.32142513     0.35900
C1132       C  0.72592291  0.15053823  0.34161278    -0.26100
C1133       C  0.75173214  0.17296657  0.33747225    -0.15300
C1134       C  0.77519179  0.17498863  0.31216772     0.37000
N1135       N  0.80024952  0.19834890  0.30663191    -0.89500
H1136       H  0.79020259  0.15595472  0.27231553     0.18100
H1137       H  0.70787903  0.14896419  0.36095892     0.18100
N1138       N  0.69840809  0.10650329  0.32661043    -0.88600
H1139       H  0.81205920  0.19776835  0.28599660     0.35500
H1140       H  0.82647132  0.19723921  0.31993200     0.40600
H1141       H  0.71862863  0.08966128  0.32810175     0.40200
H1142       H  0.68301879  0.10823108  0.34608420     0.35100
C1143       C  0.72897545  0.30745604  0.28972872    -0.26600
C1144       C  0.75458877  0.33017834  0.29196599    -0.14700
C1145       C  0.77888349  0.33382090  0.31664442     0.35900
C1146       C  0.77759491  0.31434273  0.33827158    -0.26100
C1147       C  0.75183399  0.29164527  0.33607034    -0.15300
C1148       C  0.72713296  0.28819892  0.31149962     0.37000
N1149       N  0.70179079  0.26460186  0.30808295    -0.89500
H1150       H  0.71058757  0.30458791  0.27069209     0.18100
H1151       H  0.79650917  0.31701392  0.35710881     0.18100
N1152       N  0.80433958  0.35738932  0.31980959    -0.88600
H1153       H  0.68896309  0.26396047  0.28771773     0.35500
H1154       H  0.67625299  0.26655487  0.32185721     0.40600
H1155       H  0.78412976  0.37429227  0.32039119     0.40200
H1156       H  0.82035778  0.35691597  0.33912443     0.35100
C1157       C  0.60340399  0.14080327  0.45829434    -0.26600
C1158       C  0.58701850  0.14774208  0.48490922    -0.14700
C1159       C  0.60640571  0.16823565  0.50096581     0.35900
C1160       C  0.64042428  0.18201829  0.48934351    -0.26100
C1161       C  0.65505911  0.17630265  0.46194349    -0.15300
C1162       C  0.63758900  0.15451826  0.44672963     0.37000
N1163       N  0.65336616  0.14588531  0.41961340    -0.89500
H1164       H  0.58884247  0.12492771  0.44609549     0.18100
H1165       H  0.65378706  0.19858059  0.50118017     0.18100
N1166       N  0.59152560  0.17644677  0.02844488    -0.88600
H1167       H  0.66272826  0.12557918  0.42153173     0.35500
H1168       H  0.68053425  0.15617029  0.41411237     0.40600
H1169       H  0.56608782  0.16507455  0.03514170     0.40200
H1170       H  0.58064143  0.19647357  0.02682926     0.35100
C1171       C  0.86749252  0.17332770  0.48400872    -0.26600
C1172       C  0.86245852  0.17500332  0.45446161    -0.14700
C1173       C  0.89054464  0.16015255  0.43685418     0.35900
C1174       C  0.92505703  0.14635683  0.44906194    -0.26100
C1175       C  0.93141004  0.14639729  0.47840278    -0.15300
C1176       C  0.90175788  0.15936447  0.49613202     0.37000
N1177       N  0.90763428  0.15941745  0.02630079    -0.89500
H1178       H  0.84597380  0.18422446  0.49782523     0.18100
H1179       H  0.94762385  0.13588536  0.43561891     0.18100
N1180       N  0.88459529  0.15952393  0.40671139    -0.88600
H1181       H  0.88284742  0.16974751  0.03633097     0.35500
H1182       H  0.93485997  0.17022129  0.03064358     0.40600
H1183       H  0.85647852  0.14951848  0.40279161     0.40200
H1184       H  0.90842760  0.14806495  0.39696412     0.35100
C1185       C  0.97856661  0.08710606  0.06852868    -0.26600
C1186       C  0.50570579  0.08344269  0.04536181    -0.14700
C1187       C  0.53046177  0.05956555  0.04347247     0.35900
C1188       C  0.52803450  0.04008000  0.06500663    -0.26100
C1189       C  0.50085036  0.04366446  0.08819311    -0.15300
C1190       C  0.97607056  0.06756047  0.09005406     0.37000
N1191       N  0.94935709  0.07224619  0.11409013    -0.89500
H1192       H  0.95980100  0.10555972  0.07006522     0.18100
H1193       H  0.54688362  0.02167225  0.06336909     0.18100
N1194       N  0.55729628  0.05494550  0.01942207    -0.88600
H1195       H  0.93304983  0.09069964  0.11211864     0.35500
H1196       H  0.96878844  0.07397234  0.13182899     0.40600
H1197       H  0.53805247  0.05346078  0.00157761     0.40200
H1198       H  0.57346347  0.03642806  0.02130624     0.35100
C1199       C  0.62758590  0.30921041  0.43547891    -0.26600
C1200       C  0.65173027  0.29417153  0.45508791    -0.14700
C1201       C  0.64462691  0.29830886  0.48439269     0.35900
C1202       C  0.61139684  0.31541027  0.49307248    -0.26100
C1203       C  0.58489635  0.32818211  0.47330362    -0.15300
C1204       C  0.59464207  0.32638048  0.44419533     0.37000
N1205       N  0.57130108  0.34111409  0.42294253    -0.89500
H1206       H  0.63351663  0.30711156  0.41300966     0.18100
H1207       H  0.60410043  0.31709185  0.01540525     0.18100
N1208       N  0.66929835  0.28407985  0.50531774    -0.88600
H1209       H  0.59248888  0.35341412  0.41226351     0.35500
H1210       H  0.54925347  0.35435979  0.43203688     0.40600
H1211       H  0.66112442  0.26368905  0.50440310     0.40200
H1212       H  0.66148226  0.29071020  0.02566699     0.35100
C1213       C  0.90261124  0.30997163  0.49425946    -0.26600
C1214       C  0.92910505  0.32257363  0.47473730    -0.14700
C1215       C  0.92044352  0.32030833  0.44562158     0.35900
C1216       C  0.88707222  0.30440321  0.43643494    -0.26100
C1217       C  0.86172965  0.29060927  0.45580017    -0.15300
C1218       C  0.86919809  0.29380578  0.48515730     0.37000
N1219       N  0.84430567  0.27967580  0.50560188    -0.89500
H1220       H  0.90941736  0.31154882  0.51665336     0.18100
H1221       H  0.88147193  0.30245232  0.41391811     0.18100
N1222       N  0.94567977  0.33407937  0.92527343    -0.88600
H1223       H  0.85343464  0.28465522  0.52617955     0.35500
H1224       H  0.85068908  0.25898220  0.50318297     0.40600
H1225       H  0.92594101  0.34690402  0.91346434     0.40200
H1226       H  0.95871186  0.31963877  0.91154009     0.35100
C1227       C  0.97566288  0.40821331  0.03950179    -0.26600
C1228       C  0.50280709  0.38562225  0.04106401    -0.14700
C1229       C  0.52940326  0.38244707  0.06475747     0.35900
C1230       C  0.52942107  0.40224941  0.08596254    -0.26100
C1231       C  0.50257497  0.42501243  0.08433344    -0.15300
C1232       C  0.97534208  0.42803415  0.06078624     0.37000
N1233       N  0.94820282  0.45148879  0.05819123    -0.89500
H1234       H  0.95541939  0.41075013  0.02121260     0.18100
H1235       H  0.54999678  0.39952182  0.10406100     0.18100
N1236       N  0.55566869  0.35877225  0.06771232    -0.88600
H1237       H  0.92991387  0.45038469  0.03984827     0.35500
H1238       H  0.96730756  0.46834239  0.05584967     0.40600
H1239       H  0.54757217  0.34909356  0.08655402     0.40200
H1240       H  0.58684187  0.36494614  0.06944861     0.35100
C1241       C  0.50386945  0.36598654  0.51739691     0.02800
C1242       C  0.96649794  0.35482797  0.50698220    -0.13300
C1243       C  0.96780315  0.33584918  0.98486731     0.00300
C1244       C  0.00683987  0.32791043  0.97355056    -0.11800
C1245       C  0.54415642  0.33919860  0.98343970     0.02800
C1246       C  0.54250048  0.35836547  0.50516748    -0.11300
H1247       H  0.93655894  0.36059792  0.51632824     0.08400
H1248       H  0.00839825  0.31211761  0.95765820     0.06000
H1249       H  0.57143330  0.36706671  0.51277456     0.05800
C1250       C  0.50732841  0.10462660  0.52317302     0.02800
C1251       C  0.96986104  0.11446531  0.51088024    -0.13300
C1252       C  0.97078754  0.13464764  0.99007854     0.00300
C1253       C  0.50948700  0.14486169  0.98135039    -0.11800
C1254       C  0.54703720  0.13554341  0.99369626     0.02800
C1255       C  0.54595571  0.11542362  0.51459200    -0.11300
H1256       H  0.93993821  0.10638305  0.51743975     0.08400
H1257       H  0.51032038  0.16075479  0.96555349     0.06000
H1258       H  0.57501661  0.10854074  0.52441096     0.05800
Fe1259     Fe  0.80769475  0.23332121  0.89460884     1.65800
Fe1260     Fe  0.70084183  0.23243434  0.89670064     1.73200
Fe1261     Fe  0.75704370  0.23444339  0.95818915     1.54400
O1262       O  0.80614858  0.20658063  0.96017567    -0.82000
O1263       O  0.67734551  0.26514131  0.91891349    -0.80300
O1264       O  0.83211789  0.20080554  0.91680211    -0.84500
O1265       O  0.83788660  0.25982800  0.92128582    -0.79300
O1266       O  0.71592150  0.20300283  0.96281518    -0.81100
O1267       O  0.71974081  0.25886755  0.86528491    -0.83800
C1268       C  0.83049898  0.27125220  0.94483103     0.96900
C1269       C  0.83118262  0.19486616  0.94293320     1.04400
O1270       O  0.75515301  0.23337386  0.91657218    -1.12800
O1271       O  0.71844765  0.19959864  0.87263586    -0.71700
O1272       O  0.78609171  0.20670251  0.86421870    -0.78700
O1273       O  0.79833248  0.26603127  0.95947937    -0.79400
C1274       C  0.75219543  0.19435730  0.85936469     0.95800
O1275       O  0.78822746  0.26596890  0.87071420    -0.77400
O1276       O  0.67430447  0.20573884  0.92499890    -0.82600
C1277       C  0.68132231  0.27294016  0.94435263     0.98400
C1278       C  0.68400553  0.19572829  0.94889511     1.04400
O1279       O  0.70844651  0.26257008  0.96102093    -0.78200
C1280       C  0.75324204  0.27104087  0.85878223     1.02700
C1281       C  0.75488012  0.34998863  0.76838872     0.02800
C1282       C  0.71663863  0.36023162  0.75753607    -0.13300
C1283       C  0.71623618  0.37906816  0.73536183     0.00300
C1284       C  0.75450381  0.38784664  0.72423206    -0.11800
C1285       C  0.79290141  0.37798479  0.73489920     0.02800
C1286       C  0.79297699  0.35876109  0.75673679    -0.11300
H1287       H  0.68715338  0.35380989  0.76660723     0.08400
H1288       H  0.75447550  0.40340721  0.70806634     0.06000
H1289       H  0.82264800  0.35087290  0.76478101     0.05800
C1290       C  0.74649912  0.11024031  0.77450294     0.02800
C1291       C  0.70814420  0.10138455  0.76323342    -0.13300
C1292       C  0.70780223  0.08106171  0.74253340     0.00300
C1293       C  0.74596072  0.06986906  0.73298686    -0.11800
C1294       C  0.78426605  0.07846796  0.74405258     0.02800
C1295       C  0.78450256  0.09863210  0.76481788    -0.11300
H1296       H  0.67872311  0.11043774  0.77032230     0.08400
H1297       H  0.74584642  0.05395101  0.71720133     0.06000
H1298       H  0.81419939  0.10529049  0.77338612     0.05800
Fe1299     Fe  0.94742176  0.48306132  0.64491640     1.65800
Fe1300     Fe  0.55414510  0.48176408  0.64546290     1.73200
Fe1301     Fe  0.50003033  0.48099102  0.70783681     1.54400
O1302       O  0.95681100  0.01247131  0.71147256    -0.82000
O1303       O  0.58338523  0.45456851  0.67232473    -0.80300
O1304       O  0.91715231  0.00823141  0.67317443    -0.84500
O1305       O  0.92516099  0.44950697  0.66594253    -0.79300
O1306       O  0.54748076  0.00895762  0.71133458    -0.81100
O1307       O  0.53723756  0.44957353  0.62036697    -0.83800
C1308       C  0.92759634  0.44209152  0.69167006     0.96900
C1309       C  0.92435733  0.01861299  0.69710093     1.04400
O1310       O  0.50053991  0.48195495  0.66616682    -1.12800
O1311       O  0.53318858  0.00905435  0.61525273    -0.75300
O1312       O  0.96481310  0.01688887  0.62213708    -0.78700
O1313       O  0.95253929  0.45297691  0.70917706    -0.79400
C1314       C  0.49937153  0.02210930  0.60998265     0.95800
O1315       O  0.96911520  0.45781082  0.61323800    -0.77400
O1316       O  0.57629596  0.01379600  0.66874618    -0.82600
C1317       C  0.57542250  0.44326803  0.69574054     0.98400
C1318       C  0.57307854  0.02035461  0.69465282     1.04400
O1319       O  0.54293555  0.44925617  0.71006972    -0.78200
C1320       C  0.50308860  0.44527525  0.60735793     1.02700
C1321       C  0.83226915  0.06815586  0.70435963    -0.26600
C1322       C  0.82370265  0.06615673  0.73329343    -0.14700
C1323       C  0.85049853  0.05050589  0.75079942     0.35900
C1324       C  0.88491748  0.03649983  0.73867978    -0.26100
C1325       C  0.89214356  0.03721241  0.70932775    -0.15300
C1326       C  0.86569683  0.05377112  0.69216446     0.37000
N1327       N  0.87198589  0.05664910  0.66234397    -0.89500
H1328       H  0.81181298  0.08034932  0.69092344     0.18100
H1329       H  0.90471074  0.02375627  0.75198337     0.18100
N1330       N  0.84162124  0.04798535  0.78048910    -0.88600
H1331       H  0.86614262  0.03827356  0.65232348     0.35500
H1332       H  0.90315648  0.06205093  0.65895517     0.40600
H1333       H  0.86430210  0.03565759  0.79034997     0.40200
H1334       H  0.81297606  0.03809183  0.78249625     0.35100
C1335       C  0.66258801  0.07002661  0.70154513    -0.26600
C1336       C  0.66810890  0.07046290  0.73095834    -0.14700
C1337       C  0.63845726  0.05789673  0.74850153     0.35900
C1338       C  0.60567741  0.04332219  0.73609409    -0.26100
C1339       C  0.60216776  0.04080399  0.70649304    -0.15300
C1340       C  0.62967069  0.05568708  0.68907539     0.37000
N1341       N  0.62495643  0.05566167  0.65882440    -0.89500
H1342       H  0.68503422  0.08023871  0.68820579     0.18100
H1343       H  0.58432991  0.03256245  0.74974184     0.18100
N1344       N  0.64296417  0.05876656  0.77875630    -0.88600
H1345       H  0.64827735  0.06717399  0.64924750     0.35500
H1346       H  0.59623867  0.06526985  0.65415103     0.40600
H1347       H  0.67062906  0.04819785  0.78403711     0.40200
H1348       H  0.61834224  0.04866114  0.78860234     0.35100
C1349       C  0.84101633  0.38986709  0.69548766    -0.26600
C1350       C  0.83239409  0.38997124  0.72458884    -0.14700
C1351       C  0.85867687  0.40431018  0.74307175     0.35900
C1352       C  0.89154014  0.41957366  0.73185967    -0.26100
C1353       C  0.89834429  0.42125621  0.70247853    -0.15300
C1354       C  0.87402771  0.40507531  0.68421638     0.37000
N1355       N  0.88221702  0.40454443  0.65431678    -0.89500
H1356       H  0.82102976  0.37847389  0.68143587     0.18100
H1357       H  0.91024460  0.43153539  0.74616821     0.18100
N1358       N  0.85050496  0.40453790  0.77299529    -0.88600
H1359       H  0.86116941  0.39189561  0.64395734     0.35500
H1360       H  0.91218852  0.39595052  0.65142904     0.40600
H1361       H  0.82145856  0.41428320  0.77620583     0.40200
H1362       H  0.87287777  0.41595944  0.78366781     0.35100
C1363       C  0.64851040  0.40340887  0.74486638    -0.26600
C1364       C  0.67622373  0.39149971  0.72523378    -0.14700
C1365       C  0.66731784  0.39370044  0.69610086     0.35900
C1366       C  0.63275828  0.40954338  0.68715268    -0.26100
C1367       C  0.60651205  0.42307127  0.70668858    -0.15300
C1368       C  0.61392145  0.41911902  0.73600877     0.37000
N1369       N  0.58853823  0.43190851  0.75734081    -0.89500
H1370       H  0.65505213  0.40172226  0.76730597     0.18100
H1371       H  0.62695695  0.41191625  0.66469318     0.18100
N1372       N  0.69392925  0.38025790  0.67572215    -0.88600
H1373       H  0.55770096  0.42518458  0.75535992     0.35500
H1374       H  0.58908747  0.45285826  0.75438704     0.40600
H1375       H  0.68325838  0.38406269  0.65516366     0.40200
H1376       H  0.69148581  0.35942756  0.67904285     0.35100
C1377       C  0.77254323  0.15437319  0.79183066    -0.26600
C1378       C  0.74725248  0.13178234  0.79624446    -0.14700
C1379       C  0.72376527  0.12978750  0.82142518     0.35900
C1380       C  0.72592224  0.15053817  0.84161279    -0.26100
C1381       C  0.75173209  0.17296625  0.83747239    -0.15300
C1382       C  0.77519221  0.17498801  0.81216803     0.37000
N1383       N  0.80025075  0.19834797  0.80663240    -0.89500
H1384       H  0.79020314  0.15595391  0.77231599     0.18100
H1385       H  0.70787796  0.14896435  0.86095878     0.18100
N1386       N  0.69840662  0.10650345  0.82661033    -0.88600
H1387       H  0.81206086  0.19776720  0.78599720     0.35500
H1388       H  0.82647222  0.19723796  0.81993270     0.40600
H1389       H  0.71862670  0.08966127  0.82810188     0.40200
H1390       H  0.68301693  0.10823145  0.84608395     0.35100
C1391       C  0.72897556  0.30745625  0.78972882    -0.26600
C1392       C  0.75458918  0.33017841  0.79196606    -0.14700
C1393       C  0.77888430  0.33382067  0.81664438     0.35900
C1394       C  0.77759574  0.31434241  0.83827143    -0.26100
C1395       C  0.75183445  0.29164514  0.83607023    -0.15300
C1396       C  0.72713314  0.28819902  0.81149961     0.37000
N1397       N  0.70179078  0.26460207  0.80808286    -0.89500
H1398       H  0.71058738  0.30458829  0.77069231     0.18100
H1399       H  0.79651029  0.31701337  0.85710856     0.18100
N1400       N  0.80434065  0.35738896  0.81980957    -0.88600
H1401       H  0.68896292  0.26396085  0.78771777     0.35500
H1402       H  0.67625308  0.26655507  0.82185736     0.40600
H1403       H  0.78413102  0.37429190  0.82039155     0.40200
H1404       H  0.82035924  0.35691533  0.83912432     0.35100
C1405       C  0.60340380  0.14080352  0.95829397    -0.26600
C1406       C  0.58701875  0.14774210  0.98490905    -0.14700
C1407       C  0.60640642  0.16823540  0.00096577     0.35900
C1408       C  0.64042503  0.18201797  0.98934346    -0.26100
C1409       C  0.65505951  0.17630257  0.96194332    -0.15300
C1410       C  0.63758891  0.15451845  0.94672927     0.37000
N1411       N  0.65336571  0.14588574  0.91961286    -0.89500
H1412       H  0.58884187  0.12492819  0.94609500     0.18100
H1413       H  0.65378816  0.19858006  0.00118027     0.18100
N1414       N  0.59152441  0.17644722  0.52844474    -0.88600
H1415       H  0.66272739  0.12557951  0.92153086     0.35500
H1416       H  0.68053398  0.15617053  0.91411196     0.40600
H1417       H  0.56608682  0.16507489  0.53514156     0.40200
H1418       H  0.58063982  0.19647394  0.52682877     0.35100
C1419       C  0.86749385  0.17332867  0.98400877    -0.26600
C1420       C  0.86245897  0.17500357  0.95446170    -0.14700
C1421       C  0.89054430  0.16015219  0.93685428     0.35900
C1422       C  0.92505661  0.14635631  0.94906194    -0.26100
C1423       C  0.93141034  0.14639734  0.97840270    -0.15300
C1424       C  0.90175915  0.15936535  0.99613199     0.37000
N1425       N  0.90763215  0.15941590  0.52630090    -0.89500
H1426       H  0.84597586  0.18422604  0.99782527     0.18100
H1427       H  0.94762278  0.13588429  0.93561887     0.18100
N1428       N  0.88459414  0.15952313  0.90671159    -0.88600
H1429       H  0.88284464  0.16974539  0.53633104     0.35500
H1430       H  0.93485730  0.17021998  0.53064436     0.40600
H1431       H  0.85647719  0.14951789  0.90279231     0.40200
H1432       H  0.90842613  0.14806377  0.89696424     0.35100
C1433       C  0.97856672  0.08710589  0.56852857    -0.26600
C1434       C  0.50570570  0.08344240  0.54536169    -0.14700
C1435       C  0.53046185  0.05956533  0.54347244     0.35900
C1436       C  0.52803464  0.04007980  0.56500663    -0.26100
C1437       C  0.50085039  0.04366424  0.58819306    -0.15300
C1438       C  0.97607072  0.06756028  0.59005391     0.37000
N1439       N  0.94935738  0.07224600  0.61409004    -0.89500
H1440       H  0.95980100  0.10555951  0.57006514     0.18100
H1441       H  0.54688394  0.02167211  0.56336915     0.18100
N1442       N  0.55729660  0.05494534  0.51942213    -0.88600
H1443       H  0.93305020  0.09069948  0.61211862     0.35500
H1444       H  0.96878887  0.07397212  0.63182883     0.40600
H1445       H  0.53805296  0.05346053  0.50157759     0.40200
H1446       H  0.57346396  0.03642798  0.52130638     0.35100
C1447       C  0.62758566  0.30921021  0.93547886    -0.26600
C1448       C  0.65173028  0.29417146  0.95508783    -0.14700
C1449       C  0.64462719  0.29830899  0.98439261     0.35900
C1450       C  0.61139717  0.31541047  0.99307242    -0.26100
C1451       C  0.58489644  0.32818216  0.97330360    -0.15300
C1452       C  0.59464189  0.32638033  0.94419528     0.37000
N1453       N  0.57130079  0.34111380  0.92294245    -0.89500
H1454       H  0.63351619  0.30711124  0.91300960     0.18100
H1455       H  0.60409985  0.31709151  0.51540528     0.18100
N1456       N  0.66929890  0.28408017  0.00531766    -0.88600
H1457       H  0.59248849  0.35341373  0.91226325     0.35500
H1458       H  0.54925324  0.35435964  0.93203680     0.40600
H1459       H  0.66112512  0.26368933  0.00440321     0.40200
H1460       H  0.66148158  0.29070977  0.52566708     0.35100
C1461       C  0.90261059  0.30997250  0.99425899    -0.26600
C1462       C  0.92910475  0.32257414  0.97473680    -0.14700
C1463       C  0.92044364  0.32030839  0.94562106     0.35900
C1464       C  0.88707246  0.30440316  0.93643446    -0.26100
C1465       C  0.86172959  0.29060953  0.95579975    -0.15300
C1466       C  0.86919756  0.29380653  0.98515688     0.37000
N1467       N  0.84430492  0.27967680  0.00560152    -0.89500
H1468       H  0.90941642  0.31154999  0.01665291     0.18100
H1469       H  0.88147253  0.30245192  0.91391763     0.18100
N1470       N  0.94567933  0.33407966  0.42527402    -0.88600
H1471       H  0.85343366  0.28465650  0.02617917     0.35500
H1472       H  0.85068850  0.25898318  0.00318293     0.40600
H1473       H  0.92594028  0.34690457  0.41346530     0.40200
H1474       H  0.95871114  0.31963940  0.41154032     0.35100
C1475       C  0.97566159  0.40821256  0.53950257    -0.26600
C1476       C  0.50280722  0.38562256  0.54106367    -0.14700
C1477       C  0.52940334  0.38244735  0.56475716     0.35900
C1478       C  0.52942128  0.40224972  0.58596217    -0.26100
C1479       C  0.50257544  0.42501286  0.58433298    -0.15300
C1480       C  0.97534032  0.42803335  0.56078707     0.37000
N1481       N  0.94819961  0.45148736  0.55819249    -0.89500
H1482       H  0.95541749  0.41074903  0.52121362     0.18100
H1483       H  0.54999687  0.39952208  0.60406067     0.18100
N1484       N  0.55566867  0.35877248  0.56771212    -0.88600
H1485       H  0.92990996  0.45038279  0.53984989     0.35500
H1486       H  0.96730322  0.46834144  0.55585056     0.40600
H1487       H  0.54757209  0.34909388  0.58655387     0.40200
H1488       H  0.58684185  0.36494632  0.56944842     0.35100
C1489       C  0.50386929  0.86598643  0.01739705     0.02800
C1490       C  0.96649817  0.85482805  0.00698186    -0.13300
C1491       C  0.96780361  0.83584880  0.48486745     0.00300
C1492       C  0.00684037  0.82791046  0.47355046    -0.11800
C1493       C  0.54415675  0.83919878  0.48343936     0.02800
C1494       C  0.54250038  0.85836567  0.00516745    -0.11300
H1495       H  0.93655917  0.86059802  0.01632788     0.08400
H1496       H  0.00839889  0.81211772  0.45765802     0.06000
H1497       H  0.57143310  0.86706707  0.01277451     0.05800
C1498       C  0.50732902  0.60462660  0.02317288     0.02800
C1499       C  0.96986084  0.61446489  0.01088018    -0.13300
C1500       C  0.97078795  0.63464780  0.49007856     0.00300
C1501       C  0.50948685  0.64486131  0.48135032    -0.11800
C1502       C  0.54703703  0.63554325  0.49369637     0.02800
C1503       C  0.54595627  0.61542365  0.01459183    -0.11300
H1504       H  0.93993800  0.60638270  0.01743976     0.08400
H1505       H  0.51032015  0.66075444  0.46555344     0.06000
H1506       H  0.57501724  0.60854070  0.02441065     0.05800
Fe1507     Fe  0.80769471  0.73332123  0.39460900     1.65800
Fe1508     Fe  0.70084172  0.73243417  0.39670072     1.73200
Fe1509     Fe  0.75704357  0.73444334  0.45818931     1.54400
O1510       O  0.80614815  0.70658026  0.46017582    -0.82000
O1511       O  0.67734532  0.76514108  0.41891363    -0.80300
O1512       O  0.83211819  0.70080572  0.41680236    -0.84500
O1513       O  0.83788649  0.75982807  0.42128587    -0.79300
O1514       O  0.71592083  0.70300311  0.46281546    -0.81100
O1515       O  0.71974061  0.75886743  0.36528500    -0.83800
C1516       C  0.83049914  0.77125202  0.44483123     0.96900
C1517       C  0.83118255  0.69486605  0.44293337     1.04400
O1518       O  0.75515291  0.73337376  0.41657233    -1.12800
O1519       O  0.71844768  0.69959856  0.37263588    -0.71700
O1520       O  0.78609184  0.70670239  0.36421899    -0.78700
O1521       O  0.79833279  0.76603096  0.45947966    -0.79400
C1522       C  0.75219556  0.69435723  0.35936482     0.95800
O1523       O  0.78822723  0.76596888  0.37071427    -0.77400
O1524       O  0.67430439  0.70573857  0.42499887    -0.82600
C1525       C  0.68132252  0.77294029  0.44435262     0.98400
C1526       C  0.68400512  0.69572834  0.44889528     1.04400
O1527       O  0.70844681  0.76257035  0.46102094    -0.78200
C1528       C  0.75324179  0.77104077  0.35878228     1.02700
C1529       C  0.75487966  0.84998839  0.26838864     0.02800
C1530       C  0.71663824  0.86023129  0.25753585    -0.13300
C1531       C  0.71623589  0.87906784  0.23536164     0.00300
C1532       C  0.75450359  0.88784637  0.22423199    -0.11800
C1533       C  0.79290117  0.87798451  0.23489917     0.02800
C1534       C  0.79297662  0.85876088  0.25673684    -0.11300
H1535       H  0.68715296  0.85380954  0.26660695     0.08400
H1536       H  0.75447532  0.90340698  0.20806632     0.06000
H1537       H  0.82264755  0.85087275  0.26478123     0.05800
C1538       C  0.74649946  0.61024071  0.27450252     0.02800
C1539       C  0.70814451  0.60138507  0.26323293    -0.13300
C1540       C  0.70780245  0.58106217  0.24253297     0.00300
C1541       C  0.74596086  0.56986940  0.23298648    -0.11800
C1542       C  0.78426624  0.57846822  0.24405223     0.02800
C1543       C  0.78450284  0.59863236  0.26481752    -0.11300
H1544       H  0.67872346  0.61043836  0.27032174     0.08400
H1545       H  0.74584646  0.55395131  0.21720100     0.06000
H1546       H  0.81419971  0.60529063  0.27338581     0.05800
Fe1547     Fe  0.94742192  0.98306093  0.14491636     1.65800
Fe1548     Fe  0.55414497  0.98176406  0.14546298     1.73200
Fe1549     Fe  0.50003028  0.98099118  0.20783694     1.54400
O1550       O  0.95681077  0.51247100  0.21147253    -0.82000
O1551       O  0.58338504  0.95456842  0.17232472    -0.80300
O1552       O  0.91715228  0.50823123  0.17317430    -0.84500
O1553       O  0.92516148  0.94950625  0.16594208    -0.79300
O1554       O  0.54748030  0.50895840  0.21133462    -0.81100
O1555       O  0.53723719  0.94957350  0.12036708    -0.83800
C1556       C  0.92759642  0.94209103  0.19166970     0.96900
C1557       C  0.92435723  0.51861277  0.19710082     1.04400
O1558       O  0.50053981  0.98195506  0.16616694    -1.12800
O1559       O  0.53318892  0.50905452  0.11525285    -0.75300
O1560       O  0.96481315  0.51688880  0.12213708    -0.78700
O1561       O  0.95253912  0.95297660  0.20917675    -0.79400
C1562       C  0.49937186  0.52210933  0.10998246     0.95800
O1563       O  0.96911574  0.95781098  0.11323755    -0.77400
O1564       O  0.57629632  0.51379595  0.16874633    -0.82600
C1565       C  0.57542242  0.94326806  0.19574061     0.98400
C1566       C  0.57307850  0.52035500  0.19465284     1.04400
O1567       O  0.54293564  0.94925639  0.21006988    -0.78200
C1568       C  0.50308817  0.94527513  0.10735816     1.02700
C1569       C  0.83226937  0.56815589  0.20435937    -0.26600
C1570       C  0.82370281  0.56615684  0.23329317    -0.14700
C1571       C  0.85049858  0.55050597  0.25079920     0.35900
C1572       C  0.88491738  0.53649975  0.23867959    -0.26100
C1573       C  0.89214356  0.53721230  0.20932757    -0.15300
C1574       C  0.86569704  0.55377111  0.19216425     0.37000
N1575       N  0.87198624  0.55664912  0.16234379    -0.89500
H1576       H  0.81181327  0.58034933  0.19092313     0.18100
H1577       H  0.90471043  0.52375610  0.25198320     0.18100
N1578       N  0.84162125  0.54798548  0.28048888    -0.88600
H1579       H  0.86614286  0.53827358  0.15232329     0.35500
H1580       H  0.90315685  0.56205086  0.15895504     0.40600
H1581       H  0.86430197  0.53565765  0.29034978     0.40200
H1582       H  0.81297601  0.53809205  0.28249598     0.35100
C1583       C  0.66258795  0.57002707  0.20154483    -0.26600
C1584       C  0.66810907  0.57046334  0.23095803    -0.14700
C1585       C  0.63845775  0.55789702  0.24850132     0.35900
C1586       C  0.60567782  0.54332250  0.23609397    -0.26100
C1587       C  0.60216780  0.54080440  0.20649292    -0.15300
C1588       C  0.62967057  0.55568751  0.18907517     0.37000
N1589       N  0.62495611  0.55566207  0.15882419    -0.89500
H1590       H  0.68503406  0.58023920  0.18820543     0.18100
H1591       H  0.58433054  0.53256267  0.24974180     0.18100
N1592       N  0.64296507  0.55876671  0.27875608    -0.88600
H1593       H  0.64827692  0.56717446  0.14924722     0.35500
H1594       H  0.59623832  0.56527017  0.15415089     0.40600
H1595       H  0.67063022  0.54819817  0.28403669     0.40200
H1596       H  0.61834342  0.54866109  0.28860225     0.35100
C1597       C  0.84101606  0.88986679  0.19548750    -0.26600
C1598       C  0.83239396  0.88997088  0.22458871    -0.14700
C1599       C  0.85867690  0.90430979  0.24307155     0.35900
C1600       C  0.89154018  0.91957325  0.23185938    -0.26100
C1601       C  0.89834424  0.92125579  0.20247822    -0.15300
C1602       C  0.87402741  0.90507498  0.18421611     0.37000
N1603       N  0.88221639  0.90454425  0.15431647    -0.89500
H1604       H  0.82102934  0.87847368  0.18143573     0.18100
H1605       H  0.91024477  0.93153493  0.24616788     0.18100
N1606       N  0.85050528  0.90453749  0.27299512    -0.88600
H1607       H  0.86116831  0.89189563  0.14395701     0.35500
H1608       H  0.91218762  0.89595017  0.15142849     0.40600
H1609       H  0.82145886  0.91428283  0.27620577     0.40200
H1610       H  0.87287814  0.91595896  0.28366754     0.35100
C1611       C  0.64851004  0.90340842  0.24486628    -0.26600
C1612       C  0.67622345  0.89149943  0.22523361    -0.14700
C1613       C  0.66731768  0.89370040  0.19610071     0.35900
C1614       C  0.63275819  0.90954346  0.18715260    -0.26100
C1615       C  0.60651188  0.92307119  0.20668858    -0.15300
C1616       C  0.61392106  0.91911861  0.23600875     0.37000
N1617       N  0.58853758  0.93190774  0.25734088    -0.89500
H1618       H  0.65505170  0.90172162  0.26730586     0.18100
H1619       H  0.62695696  0.91191654  0.16469312     0.18100
N1620       N  0.69392916  0.88025801  0.17572193    -0.88600
H1621       H  0.55770038  0.92518380  0.25535979     0.35500
H1622       H  0.58908681  0.95285757  0.25438745     0.40600
H1623       H  0.68325840  0.88406304  0.15516347     0.40200
H1624       H  0.69148564  0.85942768  0.17904243     0.35100
C1625       C  0.77254376  0.65437344  0.29183063    -0.26600
C1626       C  0.74725288  0.63178262  0.29624418    -0.14700
C1627       C  0.72376549  0.62978768  0.32142481     0.35900
C1628       C  0.72592236  0.65053824  0.34161255    -0.26100
C1629       C  0.75173232  0.67296629  0.33747240    -0.15300
C1630       C  0.77519266  0.67498816  0.31216812     0.37000
N1631       N  0.80025130  0.69834811  0.30663274    -0.89500
H1632       H  0.79020382  0.65595421  0.27231601     0.18100
H1633       H  0.70787789  0.64896436  0.36095846     0.18100
N1634       N  0.69840682  0.60650360  0.32660971    -0.88600
H1635       H  0.81206149  0.69776749  0.28599750     0.35500
H1636       H  0.82647270  0.69723797  0.31993305     0.40600
H1637       H  0.71862681  0.58966142  0.32810120     0.40200
H1638       H  0.68301698  0.60823150  0.34608337     0.35100
C1639       C  0.72897535  0.80745594  0.28972876    -0.26600
C1640       C  0.75458857  0.83017828  0.29196606    -0.14700
C1641       C  0.77888325  0.83382082  0.31664451     0.35900
C1642       C  0.77759485  0.81434255  0.33827157    -0.26100
C1643       C  0.75183409  0.79164502  0.33607026    -0.15300
C1644       C  0.72713300  0.78819872  0.31149955     0.37000
N1645       N  0.70179095  0.76460164  0.30808277    -0.89500
H1646       H  0.71058744  0.80458781  0.27069215     0.18100
H1647       H  0.79650909  0.81701372  0.35710881     0.18100
N1648       N  0.80433901  0.85738938  0.31980978    -0.88600
H1649       H  0.68896310  0.76396037  0.28771758     0.35500
H1650       H  0.67625318  0.76655447  0.32185716     0.40600
H1651       H  0.78412899  0.87429216  0.32039153     0.40200
H1652       H  0.82035733  0.85691599  0.33912461     0.35100
C1653       C  0.60340408  0.64080324  0.45829446    -0.26600
C1654       C  0.58701850  0.64774210  0.48490931    -0.14700
C1655       C  0.60640554  0.66823579  0.50096582     0.35900
C1656       C  0.64042409  0.68201843  0.48934352    -0.26100
C1657       C  0.65505906  0.67630272  0.46194355    -0.15300
C1658       C  0.63758904  0.65451827  0.44672974     0.37000
N1659       N  0.65336623  0.64588533  0.41961350    -0.89500
H1660       H  0.58884265  0.62492762  0.44609563     0.18100
H1661       H  0.65378681  0.69858078  0.50118014     0.18100
N1662       N  0.59152511  0.67644724  0.02844485    -0.88600
H1663       H  0.66272827  0.62557917  0.42153181     0.35500
H1664       H  0.68053433  0.65617026  0.41411251     0.40600
H1665       H  0.56608716  0.66507501  0.03514158     0.40200
H1666       H  0.58064097  0.69647394  0.02682899     0.35100
C1667       C  0.86749349  0.67332816  0.48400888    -0.26600
C1668       C  0.86245894  0.67500341  0.45446179    -0.14700
C1669       C  0.89054472  0.66015243  0.43685430     0.35900
C1670       C  0.92505720  0.64635671  0.44906195    -0.26100
C1671       C  0.93141064  0.64639743  0.47840274    -0.15300
C1672       C  0.90175895  0.65936493  0.49613207     0.37000
N1673       N  0.90763515  0.65941792  0.02630105    -0.89500
H1674       H  0.84597513  0.68422518  0.49782542     0.18100
H1675       H  0.94762372  0.63588505  0.43561886     0.18100
N1676       N  0.88459501  0.65952364  0.40671155    -0.88600
H1677       H  0.88284868  0.66974835  0.03633136     0.35500
H1678       H  0.93486103  0.67022158  0.03064336     0.40600
H1679       H  0.85647814  0.64951819  0.40279200     0.40200
H1680       H  0.90842712  0.64806460  0.39696423     0.35100
C1681       C  0.97856705  0.58710589  0.06852875    -0.26600
C1682       C  0.50570638  0.58344238  0.04536153    -0.14700
C1683       C  0.53046277  0.55956539  0.04347239     0.35900
C1684       C  0.52803546  0.54007985  0.06500658    -0.26100
C1685       C  0.50085090  0.54366423  0.08819285    -0.15300
C1686       C  0.97607110  0.56756034  0.09005414     0.37000
N1687       N  0.94935803  0.57224623  0.11409038    -0.89500
H1688       H  0.95980154  0.60555958  0.07006537     0.18100
H1689       H  0.54688489  0.52167222  0.06336923     0.18100
N1690       N  0.55729783  0.55494544  0.01942224    -0.88600
H1691       H  0.93305108  0.59069973  0.11211906     0.35500
H1692       H  0.96878978  0.57397227  0.13182914     0.40600
H1693       H  0.53805434  0.55346053  0.00157756     0.40200
H1694       H  0.57346529  0.53642819  0.02130661     0.35100
C1695       C  0.62758583  0.80921020  0.43547852    -0.26600
C1696       C  0.65173082  0.79417185  0.45508761    -0.14700
C1697       C  0.64462829  0.79830995  0.48439236     0.35900
C1698       C  0.61139811  0.81541133  0.49307208    -0.26100
C1699       C  0.58489685  0.82818248  0.47330320    -0.15300
C1700       C  0.59464204  0.82638031  0.44419486     0.37000
N1701       N  0.57130051  0.84111341  0.42294195    -0.89500
H1702       H  0.63351599  0.80711084  0.41300925     0.18100
H1703       H  0.60410099  0.81709273  0.01540508     0.18100
N1704       N  0.66930073  0.78408180  0.50531751    -0.88600
H1705       H  0.59248802  0.85341328  0.41226242     0.35500
H1706       H  0.54925301  0.85435923  0.43203620     0.40600
H1707       H  0.66112713  0.76369090  0.50440376     0.40200
H1708       H  0.66148338  0.79071158  0.02566686     0.35100
C1709       C  0.90261161  0.80997153  0.49425924    -0.26600
C1710       C  0.92910535  0.82257355  0.47473703    -0.14700
C1711       C  0.92044379  0.82030818  0.44562133     0.35900
C1712       C  0.88707250  0.80440305  0.43643474    -0.26100
C1713       C  0.86172994  0.79060915  0.45580001    -0.15300
C1714       C  0.86919846  0.79380565  0.48515712     0.37000
N1715       N  0.84430616  0.77967560  0.50560173    -0.89500
H1716       H  0.90941778  0.81154875  0.51665313     0.18100
H1717       H  0.88147219  0.80245215  0.41391792     0.18100
N1718       N  0.94567989  0.83407929  0.92527378    -0.88600
H1719       H  0.85343523  0.78465497  0.52617938     0.35500
H1720       H  0.85068959  0.75898202  0.50318276     0.40600
H1721       H  0.92594103  0.84690409  0.91346495     0.40200
H1722       H  0.95871182  0.81963884  0.91154018     0.35100
C1723       C  0.97566227  0.90821299  0.03950192    -0.26600
C1724       C  0.50280682  0.88562230  0.04106394    -0.14700
C1725       C  0.52940315  0.88244719  0.06475732     0.35900
C1726       C  0.52942108  0.90224956  0.08596236    -0.26100
C1727       C  0.50257484  0.92501255  0.08433334    -0.15300
C1728       C  0.97534122  0.92803381  0.06078640     0.37000
N1729       N  0.94820109  0.95148806  0.05819163    -0.89500
H1730       H  0.95541839  0.91074958  0.02121289     0.18100
H1731       H  0.54999697  0.89952202  0.10406073     0.18100
N1732       N  0.55566869  0.85877240  0.06771211    -0.88600
H1733       H  0.92991177  0.95038371  0.03984895     0.35500
H1734       H  0.96730527  0.96834198  0.05584988     0.40600
H1735       H  0.54757241  0.84909372  0.08655381     0.40200
H1736       H  0.58684192  0.86494636  0.06944826     0.35100
C1737       C  0.50386969  0.86598658  0.51739670     0.02800
C1738       C  0.96649808  0.85482802  0.50698187    -0.13300
C1739       C  0.96780366  0.83584872  0.98486754     0.00300
C1740       C  0.00684041  0.82791031  0.97355059    -0.11800
C1741       C  0.54415645  0.83919886  0.98343951     0.02800
C1742       C  0.54250073  0.85836575  0.50516712    -0.11300
H1743       H  0.93655906  0.86059793  0.51632789     0.08400
H1744       H  0.00839892  0.81211748  0.95765824     0.06000
H1745       H  0.57143344  0.86706721  0.51277410     0.05800
C1746       C  0.50732842  0.60462654  0.52317303     0.02800
C1747       C  0.96986155  0.61446525  0.51087995    -0.13300
C1748       C  0.97078716  0.63464731  0.99007864     0.00300
C1749       C  0.50948713  0.64486169  0.98135048    -0.11800
C1750       C  0.54703741  0.63554346  0.99369629     0.02800
C1751       C  0.54595575  0.61542353  0.51459203    -0.11300
H1752       H  0.93993866  0.60638306  0.51743943     0.08400
H1753       H  0.51032036  0.66075491  0.96555371     0.06000
H1754       H  0.57501663  0.60854060  0.52441099     0.05800
Fe1755     Fe  0.80769469  0.73332106  0.89460909     1.65800
Fe1756     Fe  0.70084173  0.73243430  0.89670084     1.73200
Fe1757     Fe  0.75704363  0.73444353  0.95818938     1.54400
O1758       O  0.80614838  0.70658067  0.96017606    -0.82000
O1759       O  0.67734536  0.76514129  0.91891367    -0.80300
O1760       O  0.83211767  0.70080543  0.91680251    -0.84500
O1761       O  0.83788663  0.75982784  0.92128600    -0.79300
O1762       O  0.71592132  0.70300311  0.96281550    -0.81100
O1763       O  0.71974082  0.75886747  0.86528509    -0.83800
C1764       C  0.83049912  0.77125206  0.94483121     0.96900
C1765       C  0.83118238  0.69486612  0.94293362     1.04400
O1766       O  0.75515292  0.73337381  0.91657241    -1.12800
O1767       O  0.71844744  0.69959861  0.87263602    -0.71700
O1768       O  0.78609159  0.70670232  0.86421904    -0.78700
O1769       O  0.79833258  0.76603126  0.95947955    -0.79400
C1770       C  0.75219525  0.69435720  0.85936493     0.95800
O1771       O  0.78822751  0.76596873  0.87071433    -0.77400
O1772       O  0.67430448  0.70573878  0.92499910    -0.82600
C1773       C  0.68132239  0.77294039  0.94435271     0.98400
C1774       C  0.68400554  0.69572838  0.94889539     1.04400
O1775       O  0.70844664  0.76257040  0.96102102    -0.78200
C1776       C  0.75324211  0.77104071  0.85878235     1.02700
C1777       C  0.75487994  0.84998830  0.76838865     0.02800
C1778       C  0.71663848  0.86023132  0.75753599    -0.13300
C1779       C  0.71623609  0.87906781  0.73536171     0.00300
C1780       C  0.75450376  0.88784616  0.72423186    -0.11800
C1781       C  0.79290135  0.87798431  0.73489902     0.02800
C1782       C  0.79297684  0.85876071  0.75673671    -0.11300
H1783       H  0.68715322  0.85380966  0.76660721     0.08400
H1784       H  0.75447552  0.90340667  0.70806607     0.06000
H1785       H  0.82264780  0.85087253  0.76478102     0.05800
C1786       C  0.74649889  0.61024057  0.77450282     0.02800
C1787       C  0.70814397  0.60138491  0.76323322    -0.13300
C1788       C  0.70780195  0.58106201  0.74253328     0.00300
C1789       C  0.74596041  0.56986931  0.73298677    -0.11800
C1790       C  0.78426575  0.57846822  0.74405249     0.02800
C1791       C  0.78450230  0.59863229  0.76481782    -0.11300
H1792       H  0.67872290  0.61043822  0.77032201     0.08400
H1793       H  0.74584609  0.55395124  0.71720128     0.06000
H1794       H  0.81419915  0.60529058  0.77338612     0.05800
Fe1795     Fe  0.94742191  0.98306102  0.64491642     1.65800
Fe1796     Fe  0.55414519  0.98176393  0.64546289     1.73200
Fe1797     Fe  0.50003029  0.98099090  0.70783671     1.54400
O1798       O  0.95681046  0.51247145  0.71147259    -0.82000
O1799       O  0.58338534  0.95456835  0.67232472    -0.80300
O1800       O  0.91715232  0.50823209  0.67317415    -0.84500
O1801       O  0.92516142  0.94950648  0.66594232    -0.79300
O1802       O  0.54748076  0.50895775  0.71133463    -0.81100
O1803       O  0.53723761  0.94957337  0.62036697    -0.83800
C1804       C  0.92759645  0.94209120  0.69166992     0.96900
C1805       C  0.92435711  0.51861342  0.69710079     1.04400
O1806       O  0.50053994  0.98195481  0.66616673    -1.12800
O1807       O  0.53318851  0.50905445  0.61525272    -0.75300
O1808       O  0.96481312  0.51688892  0.62213673    -0.78700
O1809       O  0.95253917  0.95297675  0.70917698    -0.79400
C1810       C  0.49937145  0.52210937  0.60998265     0.95800
O1811       O  0.96911556  0.95781087  0.61323774    -0.77400
O1812       O  0.57629580  0.51379617  0.66874617    -0.82600
C1813       C  0.57542253  0.94326787  0.69574053     0.98400
C1814       C  0.57307841  0.52035480  0.69465281     1.04400
O1815       O  0.54293553  0.94925603  0.71006965    -0.78200
C1816       C  0.50308870  0.94527509  0.60735787     1.02700
C1817       C  0.83226898  0.56815633  0.70435956    -0.26600
C1818       C  0.82370236  0.56615703  0.73329334    -0.14700
C1819       C  0.85049818  0.55050612  0.75079930     0.35900
C1820       C  0.88491717  0.53650012  0.73867965    -0.26100
C1821       C  0.89214337  0.53721287  0.70932764    -0.15300
C1822       C  0.86569674  0.55377168  0.69216439     0.37000
N1823       N  0.87198594  0.55664982  0.66234394    -0.89500
H1824       H  0.81181286  0.58034983  0.69092339     0.18100
H1825       H  0.90471029  0.52375646  0.75198321     0.18100
N1826       N  0.84162069  0.54798535  0.78048893    -0.88600
H1827       H  0.86614266  0.53827429  0.65232335     0.35500
H1828       H  0.90315653  0.56205164  0.65895523     0.40600
H1829       H  0.86430155  0.53565753  0.79034977     0.40200
H1830       H  0.81297560  0.53809176  0.78249587     0.35100
C1831       C  0.66258774  0.57002689  0.70154502    -0.26600
C1832       C  0.66810861  0.57046322  0.73095824    -0.14700
C1833       C  0.63845699  0.55789709  0.74850145     0.35900
C1834       C  0.60567717  0.54332252  0.73609403    -0.26100
C1835       C  0.60216752  0.54080426  0.70649297    -0.15300
C1836       C  0.62967041  0.55568735  0.68907529     0.37000
N1837       N  0.62495622  0.55566181  0.65882429    -0.89500
H1838       H  0.68503398  0.58023896  0.68820567     0.18100
H1839       H  0.58432970  0.53256279  0.74974180     0.18100
N1840       N  0.64296387  0.55876700  0.77875622    -0.88600
H1841       H  0.64827720  0.56717409  0.64924734     0.35500
H1842       H  0.59623850  0.56526995  0.65415082     0.40600
H1843       H  0.67062886  0.54819841  0.78403709     0.40200
H1844       H  0.61834201  0.54866153  0.78860230     0.35100
C1845       C  0.84101618  0.88986685  0.69548744    -0.26600
C1846       C  0.83239409  0.88997077  0.72458864    -0.14700
C1847       C  0.85867697  0.90430965  0.74307157     0.35900
C1848       C  0.89154022  0.91957319  0.73185951    -0.26100
C1849       C  0.89834428  0.92125589  0.70247836    -0.15300
C1850       C  0.87402747  0.90507515  0.68421616     0.37000
N1851       N  0.88221645  0.90454451  0.65431652    -0.89500
H1852       H  0.82102952  0.87847375  0.68143561     0.18100
H1853       H  0.91024476  0.93153484  0.74616808     0.18100
N1854       N  0.85050508  0.90453724  0.77299509    -0.88600
H1855       H  0.86116857  0.89189589  0.64395703     0.35500
H1856       H  0.91218784  0.89595047  0.65142857     0.40600
H1857       H  0.82145883  0.91428260  0.77620571     0.40200
H1858       H  0.87287809  0.91595867  0.78366769     0.35100
C1859       C  0.64851046  0.90340867  0.74486635    -0.26600
C1860       C  0.67622366  0.89149942  0.72523372    -0.14700
C1861       C  0.66731762  0.89370006  0.69610082     0.35900
C1862       C  0.63275805  0.90954301  0.68715266    -0.26100
C1863       C  0.60651200  0.92307104  0.70668856    -0.15300
C1864       C  0.61392152  0.91911885  0.73600875     0.37000
N1865       N  0.58853846  0.93190844  0.75734080    -0.89500
H1866       H  0.65505229  0.90172213  0.76730592     0.18100
H1867       H  0.62695656  0.91191579  0.66469317     0.18100
N1868       N  0.69392892  0.88025740  0.67572214    -0.88600
H1869       H  0.55770122  0.92518459  0.75536005     0.35500
H1870       H  0.58908785  0.95285825  0.75438692     0.40600
H1871       H  0.68325794  0.88406216  0.65516362     0.40200
H1872       H  0.69148549  0.85942714  0.67904296     0.35100
C1873       C  0.77254329  0.65437326  0.79183083    -0.26600
C1874       C  0.74725230  0.63178250  0.79624443    -0.14700
C1875       C  0.72376486  0.62978764  0.82142503     0.35900
C1876       C  0.72592177  0.65053823  0.84161273    -0.26100
C1877       C  0.75173192  0.67296621  0.83747256    -0.15300
C1878       C  0.77519236  0.67498795  0.81216832     0.37000
N1879       N  0.80025129  0.69834777  0.80663290    -0.89500
H1880       H  0.79020334  0.65595400  0.77231621     0.18100
H1881       H  0.70787720  0.64896443  0.86095860     0.18100
N1882       N  0.69840595  0.60650365  0.82660994    -0.88600
H1883       H  0.81206149  0.69776707  0.78599776     0.35500
H1884       H  0.82647274  0.69723752  0.81993329     0.40600
H1885       H  0.71862588  0.58966136  0.82810142     0.40200
H1886       H  0.68301617  0.60823158  0.84608351     0.35100
C1887       C  0.72897543  0.80745597  0.78972889    -0.26600
C1888       C  0.75458901  0.83017815  0.79196606    -0.14700
C1889       C  0.77888429  0.83382045  0.81664431     0.35900
C1890       C  0.77759585  0.81434221  0.83827140    -0.26100
C1891       C  0.75183455  0.79164492  0.83607028    -0.15300
C1892       C  0.72713315  0.78819875  0.81149970     0.37000
N1893       N  0.70179076  0.76460180  0.80808304    -0.89500
H1894       H  0.71058716  0.80458798  0.77069242     0.18100
H1895       H  0.79651055  0.81701319  0.85710846     0.18100
N1896       N  0.80434088  0.85738866  0.81980936    -0.88600
H1897       H  0.68896288  0.76396049  0.78771796     0.35500
H1898       H  0.67625305  0.76655485  0.82185759     0.40600
H1899       H  0.78413140  0.87429174  0.82039129     0.40200
H1900       H  0.82035951  0.85691506  0.83912403     0.35100
C1901       C  0.60340438  0.64080341  0.95829430    -0.26600
C1902       C  0.58701890  0.64774224  0.98490919    -0.14700
C1903       C  0.60640631  0.66823564  0.00096589     0.35900
C1904       C  0.64042504  0.68201817  0.98934369    -0.26100
C1905       C  0.65505974  0.67630262  0.96194364    -0.15300
C1906       C  0.63758954  0.65451833  0.94672969     0.37000
N1907       N  0.65336677  0.64588544  0.91961345    -0.89500
H1908       H  0.58884274  0.62492793  0.94609539     0.18100
H1909       H  0.65378799  0.69858035  0.00118044     0.18100
N1910       N  0.59152415  0.67644747  0.52844470    -0.88600
H1911       H  0.66272863  0.62557924  0.92153172     0.35500
H1912       H  0.68053498  0.65617029  0.91411259     0.40600
H1913       H  0.56608652  0.66507510  0.53514152     0.40200
H1914       H  0.58063958  0.69647413  0.52682865     0.35100
C1915       C  0.86749398  0.67332891  0.98400921    -0.26600
C1916       C  0.86245864  0.67500350  0.95446214    -0.14700
C1917       C  0.89054344  0.66015173  0.93685466     0.35900
C1918       C  0.92505571  0.64635573  0.94906225    -0.26100
C1919       C  0.93140989  0.64639702  0.97840296    -0.15300
C1920       C  0.90175926  0.65936546  0.99613232     0.37000
N1921       N  0.90763371  0.65941660  0.52630090    -0.89500
H1922       H  0.84597648  0.68422664  0.99782575     0.18100
H1923       H  0.94762158  0.63588346  0.93561917     0.18100
N1924       N  0.88459293  0.65952244  0.90671199    -0.88600
H1925       H  0.88284656  0.66974634  0.53633113     0.35500
H1926       H  0.93485914  0.67022055  0.53064403     0.40600
H1927       H  0.85647561  0.64951746  0.90279294     0.40200
H1928       H  0.90842445  0.64806276  0.89696465     0.35100
C1929       C  0.97856710  0.58710589  0.56852824    -0.26600
C1930       C  0.50570566  0.58344240  0.54536172    -0.14700
C1931       C  0.53046131  0.55956514  0.54347223     0.35900
C1932       C  0.52803410  0.54007962  0.56500642    -0.26100
C1933       C  0.50085027  0.54366427  0.58819304    -0.15300
C1934       C  0.97607098  0.56756035  0.59005363     0.37000
N1935       N  0.94935741  0.57224612  0.61408963    -0.89500
H1936       H  0.95980136  0.60555950  0.57006470     0.18100
H1937       H  0.54688301  0.52167179  0.56336881     0.18100
N1938       N  0.55729547  0.55494492  0.51942168    -0.88600
H1939       H  0.93305020  0.59069957  0.61211812     0.35500
H1940       H  0.96878876  0.57397229  0.63182852     0.40600
H1941       H  0.53805138  0.55346027  0.50157731     0.40200
H1942       H  0.57346240  0.53642741  0.52130578     0.35100
C1943       C  0.62758570  0.80921039  0.93547874    -0.26600
C1944       C  0.65173052  0.79417186  0.95508776    -0.14700
C1945       C  0.64462770  0.79830971  0.98439251     0.35900
C1946       C  0.61139757  0.81541114  0.99307225    -0.26100
C1947       C  0.58489655  0.82818255  0.97330340    -0.15300
C1948       C  0.59464190  0.82638051  0.94419507     0.37000
N1949       N  0.57130051  0.84111373  0.92294220    -0.89500
H1950       H  0.63351602  0.80711119  0.91300947     0.18100
H1951       H  0.60410170  0.81709307  0.51540493     0.18100
N1952       N  0.66929982  0.78408131  0.00531765    -0.88600
H1953       H  0.59248814  0.85341362  0.91226272     0.35500
H1954       H  0.54925307  0.85435956  0.93203646     0.40600
H1955       H  0.66112618  0.76369039  0.00440358     0.40200
H1956       H  0.66148457  0.79071235  0.52566673     0.35100
C1957       C  0.90261147  0.80997160  0.99425924    -0.26600
C1958       C  0.92910533  0.82257356  0.97473708    -0.14700
C1959       C  0.92044394  0.82030810  0.94562136     0.35900
C1960       C  0.88707264  0.80440299  0.93643473    -0.26100
C1961       C  0.86172995  0.79060917  0.95579997    -0.15300
C1962       C  0.86919838  0.79380569  0.98515709     0.37000
N1963       N  0.84430611  0.77967556  0.00560165    -0.89500
H1964       H  0.90941757  0.81154882  0.01665314     0.18100
H1965       H  0.88147246  0.80245199  0.91391790     0.18100
N1966       N  0.94567945  0.83407958  0.42527373    -0.88600
H1967       H  0.85343513  0.78465489  0.02617931     0.35500
H1968       H  0.85068962  0.75898199  0.00318261     0.40600
H1969       H  0.92594044  0.84690433  0.41346502     0.40200
H1970       H  0.95871148  0.81963924  0.41154001     0.35100
C1971       C  0.97566204  0.90821270  0.53950227    -0.26600
C1972       C  0.50280739  0.88562255  0.54106349    -0.14700
C1973       C  0.52940348  0.88244726  0.56475698     0.35900
C1974       C  0.52942144  0.90224958  0.58596205    -0.26100
C1975       C  0.50257559  0.92501271  0.58433290    -0.15300
C1976       C  0.97534095  0.92803348  0.56078678     0.37000
N1977       N  0.94820077  0.95148771  0.55819208    -0.89500
H1978       H  0.95541817  0.91074933  0.52121324     0.18100
H1979       H  0.54999699  0.89952188  0.60406057     0.18100
N1980       N  0.55566873  0.85877235  0.56771187    -0.88600
H1981       H  0.92991130  0.95038332  0.53984939     0.35500
H1982       H  0.96730482  0.96834160  0.55585026     0.40600
H1983       H  0.54757220  0.84909377  0.58655358     0.40200
H1984       H  0.58684195  0.86494618  0.56944815     0.35100
loop_ 
_geom_bond_atom_site_label_1 
_geom_bond_atom_site_label_2 
_geom_bond_distance 
_geom_bond_site_symmetry_2 
_ccdc_geom_bond_type 
C1            C6   1.404       .  A
C1          C994   1.408   1_455  A
C1          C236   1.481       .  S
C2          C993   1.408       .  A
C2          C251   1.405   1_554  A
C2            H7   1.084       .  S
C3            C4   1.402       .  A
C3          C250   1.405       .  A
C3          C222   1.484       .  S
C4          C997   1.400       .  A
C4            H8   1.084       .  S
C5          C996   1.400       .  A
C5          C254   1.398       .  A
C5          C211   1.477       .  S
C6          C253   1.398   1_554  A
C6            H9   1.084       .  S
C10          C15   1.408       .  A
C10        C1003   1.405   1_455  A
C10         C194   1.484       .  S
C11        C1002   1.405       .  A
C11         C260   1.401   1_554  A
C11          H16   1.084       .  S
C12         C259   1.401       .  A
C12        C1005   1.401       .  A
C12         C183   1.478       .  S
C13          C14   1.400       .  A
C13        C1004   1.401   1_455  A
C13          H17   1.085       .  S
C14         C263   1.403       .  A
C14         C166   1.477       .  S
C15         C262   1.403   1_554  A
C15          H18   1.084       .  S
Fe19         O35   2.056       .  S
Fe19         O25   2.067       .  S
Fe19         O32   2.073       .  S
Fe19         O24   2.060       .  S
Fe19         O30   1.968       .  S
Fe20         O23   2.058       .  S
Fe20         O27   2.074       .  S
Fe20         O31   2.052       .  S
Fe20         O36   2.069       .  S
Fe20         O30   1.967       .  S
Fe21         O39   2.065       .  S
Fe21         O26   2.060       .  S
Fe21         O33   2.058       .  S
Fe21         O22   2.066       .  S
Fe21         O30   1.969       .  S
O22          C29   1.272       .  A
O23          C37   1.270       .  A
O24          C29   1.270       .  A
O25          C28   1.269       .  A
O26          C38   1.267       .  A
O27          C40   1.271       .  A
C28         C225   1.485       .  S
C28          O33   1.266       .  A
C29         C180   1.489       .  S
O31          C34   1.266       .  A
O32          C34   1.269       .  A
C34         C141   1.480       .  S
O35          C40   1.268       .  A
O36          C38   1.269       .  A
C37         C208   1.487       .  S
C37          O39   1.270       .  A
C38         C169   1.477       .  S
C40         C155   1.480       .  S
C41          C42   1.406       .  A
C41          C46   1.407       .  A
C41         C152   1.484       .  S
C42          C43   1.402       .  A
C42          H47   1.084       .  S
C43          C44   1.402       .  A
C43         C124   1.483       .  S
C44          C45   1.401       .  A
C44          H48   1.084       .  S
C45          C46   1.403       .  A
C45         C110   1.481       .  S
C46          H49   1.083       .  S
C50          C51   1.408       .  A
C50          C55   1.406       .  A
C50         C138   1.481       .  S
C51          C52   1.403       .  A
C51          H56   1.083       .  S
C52          C53   1.400       .  A
C52          C96   1.480       .  S
C53          C54   1.399       .  A
C53          H57   1.085       .  S
C54          C55   1.399       .  A
C54          C82   1.475       .  S
C55          H58   1.084       .  S
Fe59         O75   2.061       .  S
Fe59         O65   2.069       .  S
Fe59        O568   2.072       .  S
Fe59        O560   2.054       .  S
Fe59       O1062   1.965       .  S
Fe60         O63   2.059       .  S
Fe60         O67   2.064       .  S
Fe60        O567   2.067       .  S
Fe60        O572   2.062       .  S
Fe60         O70   1.966       .  S
Fe61         O79   2.064       .  S
Fe61        O562   2.071       .  S
Fe61       O1065   2.068   1_455  S
Fe61       O1550   2.065   1_455  S
Fe61         O70   1.971       .  S
O62       Fe1549   2.065   1_545  S
O62          C69   1.268       .  A
O63          C77   1.268       .  A
O64        Fe555   2.054   1_545  S
O64          C69   1.265       .  A
O65          C68   1.272       .  A
O66        Fe557   2.071   1_545  S
O66          C78   1.272       .  A
O67          C80   1.269       .  A
C68         C113   1.490       .  S
C68          O73   1.272       .  A
C69          C85   1.482       .  S
O70       Fe1051   1.965   1_455  S
O71        Fe556   2.067   1_545  S
O71          C74   1.269   1_455  A
O72        Fe555   2.072   1_545  S
O72        C1066   1.271       .  A
O73       Fe1053   2.068       .  S
C74         C197   1.483   1_655  S
C74        O1064   1.271       .  A
O75        C1072   1.267       .  A
O76        Fe556   2.062   1_545  S
O76          C78   1.271       .  A
C77         C127   1.486       .  S
C77          O79   1.267       .  A
C78          C99   1.491       .  S
C80         C239   1.480       .  S
C80        O1067   1.267   1_455  A
C81          C82   1.399       .  A
C81          C86   1.394       .  A
C81          H88   1.084       .  S
C82          C83   1.409       .  A
C83          C84   1.407       .  A
C83          N90   1.438       .  S
C84          C85   1.407       .  A
C84          H89   1.084       .  S
C85          C86   1.418       .  A
C86          N87   1.432       .  S
N87          H91   1.044       .  S
N87          H92   1.044       .  S
N90          H93   1.046       .  S
N90          H94   1.046       .  S
C95          C96   1.402       .  A
C95         C100   1.404       .  A
C95         H102   1.084       .  S
C96          C97   1.409       .  A
C97          C98   1.406       .  A
C97         N104   1.438       .  S
C98          C99   1.410       .  A
C98         H103   1.083       .  S
C99         C100   1.417       .  A
C100        N101   1.438       .  S
N101        H105   1.046       .  S
N101        H106   1.046       .  S
N104        H107   1.046       .  S
N104        H108   1.046       .  S
C109        C110   1.403       .  A
C109        C114   1.407       .  A
C109        H116   1.084       .  S
C110        C111   1.409       .  A
C111        C112   1.404       .  A
C111        N118   1.439       .  S
C112        C113   1.409       .  A
C112        H117   1.083       .  S
C113        C114   1.416       .  A
C114        N115   1.438       .  S
N115        H119   1.046       .  S
N115        H120   1.046       .  S
N118        H121   1.046       .  S
N118        H122   1.046       .  S
C123        C124   1.403       .  A
C123        C128   1.399       .  A
C123        H130   1.084       .  S
C124        C125   1.410       .  A
C125        C126   1.403       .  A
C125        N132   1.438       .  S
C126        C127   1.407       .  A
C126        H131   1.084       .  S
C127        C128   1.419       .  A
C128        N129   1.432       .  S
N129        H133   1.045       .  S
N129        H134   1.045       .  S
N132        H135   1.045       .  S
N132        H136   1.046       .  S
C137        C138   1.403       .  A
C137        C142   1.405       .  A
C137        H144   1.084       .  S
C138        C139   1.410       .  A
C139        C140   1.404       .  A
C139        N146   1.438       .  S
C140        C141   1.405       .  A
C140        H145   1.084       .  S
C141        C142   1.415       .  A
C142        N143   1.438       .  S
N143        H147   1.046       .  S
N143        H148   1.045       .  S
N146        H149   1.045       .  S
N146        H150   1.046       .  S
C151        C152   1.403       .  A
C151        C156   1.404       .  A
C151        H158   1.084       .  S
C152        C153   1.412       .  A
C153        C154   1.405       .  A
C153        N160   1.438       .  S
C154        C155   1.405       .  A
C154        H159   1.084       .  S
C155        C156   1.414       .  A
C156        N157   1.438       .  S
N157        H161   1.046       .  S
N157        H162   1.044       .  S
N160        H163   1.046       .  S
N160        H164   1.046       .  S
C165        C166   1.403       .  A
C165        C170   1.402       .  A
C165        H172   1.084       .  S
C166        C167   1.416       .  A
C167        C168   1.401       .  A
C167        N422   1.439       .  S
C168        C169   1.404       .  A
C168        H173   1.084       .  S
C169        C170   1.416       .  A
C170        N171   1.439       .  S
N171        H175   1.046       .  S
N171        H176   1.043       .  S
N174        C415   1.439       .  S
N174        H177   1.042       .  S
N174        H178   1.046       .  S
C179        C180   1.408       .  A
C179        C184   1.402       .  A
C179        H186   1.083       .  S
C180        C181   1.417       .  A
C181        C182   1.406       .  A
C181        N188   1.438       .  S
C182        C183   1.402       .  A
C182        H187   1.084       .  S
C183        C184   1.408       .  A
C184        N433   1.438       .  S
N185        C432   1.438   1_554  S
N185        H189   1.046       .  S
N185        H190   1.045       .  S
N188        H191   1.046       .  S
N188        H192   1.046       .  S
C193        C198   1.406       .  A
C193       C1186   1.405       .  A
C193        H200   1.084       .  S
C194        C195   1.410       .  A
C194       C1185   1.405   1_455  A
C195        C196   1.404       .  A
C195        N202   1.438       .  S
C196        C197   1.406       .  A
C196        H201   1.084       .  S
C197       C1190   1.411   1_455  A
C198       C1189   1.411       .  A
C198        N199   1.436       .  S
N199        H203   1.046       .  S
N199        H204   1.046       .  S
N202        H205   1.045       .  S
N202        H206   1.046       .  S
C207        C208   1.407       .  A
C207        C212   1.399       .  A
C207        H214   1.084       .  S
C208        C209   1.418       .  A
C209        C210   1.403       .  A
C209        N216   1.438       .  S
C210        C211   1.401       .  A
C210        H463   1.084       .  S
C211        C212   1.413       .  A
C212        N213   1.439       .  S
N213        H217   1.046       .  S
N213        H218   1.044       .  S
H215        C458   1.084   1_554  S
N216        H219   1.046       .  S
N216        H468   1.045       .  S
H220        N464   1.045       .  S
C221        C222   1.403       .  A
C221        C226   1.408       .  A
C221        H228   1.084       .  S
C222        C223   1.409       .  A
C223        C224   1.401       .  A
C223        N478   1.433       .  S
C224        C225   1.404       .  A
C224        H229   1.084       .  S
C225        C226   1.417       .  A
C226        N227   1.438       .  S
N227        H231   1.046       .  S
N227        H232   1.046       .  S
N230        C471   1.433       .  S
N230        H233   1.046       .  S
N230        H234   1.046       .  S
C235        C240   1.405       .  A
C235       C1228   1.401       .  A
C235        H242   1.084       .  S
C236        C237   1.410       .  A
C236       C1227   1.401   1_455  A
C237        C238   1.401       .  A
C237        N244   1.433       .  S
C238        C239   1.403       .  A
C238        H243   1.084       .  S
C239       C1232   1.416   1_455  A
C240       C1231   1.416       .  A
C240        N241   1.438       .  S
N241        H245   1.046       .  S
N241        H246   1.046       .  S
N244        H247   1.046       .  S
N244        H248   1.046       .  S
C249       C1242   1.408   1_455  A
C249        C254   1.404       .  A
C249        C484   1.481       .  S
C250       C1241   1.408       .  A
C250        H255   1.084       .  S
C251        C252   1.402       .  A
C251        C470   1.484       .  S
C252       C1245   1.400       .  A
C252        H256   1.084       .  S
C253       C1244   1.400       .  A
C253        C459   1.477       .  S
C254        H257   1.084       .  S
C258       C1251   1.405   1_455  A
C258        C263   1.408       .  A
C258        C442   1.484       .  S
C259       C1250   1.405       .  A
C259        H264   1.084       .  S
C260       C1253   1.401       .  A
C260        C431   1.478       .  S
C261       C1252   1.401   1_455  A
C261        C262   1.400       .  A
C261        H265   1.085       .  S
C262        C414   1.477       .  S
C263        H266   1.084       .  S
Fe267       O283   2.056       .  S
Fe267       O273   2.067       .  S
Fe267       O280   2.073       .  S
Fe267       O272   2.060       .  S
Fe267       O278   1.968       .  S
Fe268       O271   2.058       .  S
Fe268       O275   2.074       .  S
Fe268       O279   2.052       .  S
Fe268       O284   2.069       .  S
Fe268       O278   1.967       .  S
Fe269       O287   2.065       .  S
Fe269       O274   2.060       .  S
Fe269       O281   2.058       .  S
Fe269       O270   2.066       .  S
Fe269       O278   1.969       .  S
O270        C277   1.272       .  A
O271        C285   1.270       .  A
O272        C277   1.270       .  A
O273        C276   1.269       .  A
O274        C286   1.267       .  A
O275        C288   1.271       .  A
C276        C473   1.485       .  S
C276        O281   1.266       .  A
C277        C428   1.489       .  S
O279        C282   1.266       .  A
O280        C282   1.269       .  A
C282        C389   1.480       .  S
O283        C288   1.268       .  A
O284        C286   1.269       .  A
C285        C456   1.487       .  S
C285        O287   1.270       .  A
C286        C417   1.477       .  S
C288        C403   1.480       .  S
C289        C290   1.406       .  A
C289        C294   1.407       .  A
C289        C400   1.484       .  S
C290        C291   1.402       .  A
C290        H295   1.084       .  S
C291        C292   1.402       .  A
C291        C372   1.483       .  S
C292        C293   1.401       .  A
C292        H296   1.084       .  S
C293        C294   1.403       .  A
C293        C358   1.481       .  S
C294        H297   1.083       .  S
C298        C299   1.408       .  A
C298        C303   1.406       .  A
C298        C386   1.481       .  S
C299        C300   1.403       .  A
C299        H304   1.083       .  S
C300        C301   1.400       .  A
C300        C344   1.480       .  S
C301        C302   1.399       .  A
C301        H305   1.085       .  S
C302        C303   1.399       .  A
C302        C330   1.475       .  S
C303        H306   1.084       .  S
Fe307       O323   2.061       .  S
Fe307       O313   2.069       .  S
Fe307       O816   2.072       .  S
Fe307       O808   2.054       .  S
Fe307      O1310   1.965       .  S
Fe308       O311   2.059       .  S
Fe308       O315   2.064       .  S
Fe308       O815   2.067       .  S
Fe308       O820   2.062       .  S
Fe308       O318   1.966       .  S
Fe309       O327   2.064       .  S
Fe309       O810   2.071       .  S
Fe309      O1313   2.068   1_455  S
Fe309      O1798   2.065   1_455  S
Fe309       O318   1.971       .  S
O310      Fe1797   2.065   1_545  S
O310        C317   1.268       .  A
O311        C325   1.268       .  A
O312       Fe803   2.054   1_545  S
O312        C317   1.265       .  A
O313        C316   1.272       .  A
O314       Fe805   2.071   1_545  S
O314        C326   1.272       .  A
O315        C328   1.269       .  A
C316        C361   1.490       .  S
C316        O321   1.272       .  A
C317        C333   1.482       .  S
O318      Fe1299   1.965   1_455  S
O319       Fe804   2.067   1_545  S
O319        C322   1.269   1_455  A
O320       Fe803   2.072   1_545  S
O320       C1314   1.271       .  A
O321      Fe1301   2.068       .  S
C322        C445   1.483   1_655  S
C322       O1312   1.271       .  A
O323       C1320   1.267       .  A
O324       Fe804   2.062   1_545  S
O324        C326   1.271       .  A
C325        C375   1.486       .  S
C325        O327   1.267       .  A
C326        C347   1.491       .  S
C328        C487   1.480       .  S
C328       O1315   1.267   1_455  A
C329        C330   1.399       .  A
C329        C334   1.394       .  A
C329        H336   1.084       .  S
C330        C331   1.409       .  A
C331        C332   1.407       .  A
C331        N338   1.438       .  S
C332        C333   1.407       .  A
C332        H337   1.084       .  S
C333        C334   1.418       .  A
C334        N335   1.432       .  S
N335        H339   1.044       .  S
N335        H340   1.044       .  S
N338        H341   1.046       .  S
N338        H342   1.046       .  S
C343        C344   1.402       .  A
C343        C348   1.404       .  A
C343        H350   1.084       .  S
C344        C345   1.409       .  A
C345        C346   1.406       .  A
C345        N352   1.438       .  S
C346        C347   1.410       .  A
C346        H351   1.083       .  S
C347        C348   1.417       .  A
C348        N349   1.438       .  S
N349        H353   1.046       .  S
N349        H354   1.046       .  S
N352        H355   1.046       .  S
N352        H356   1.046       .  S
C357        C358   1.403       .  A
C357        C362   1.407       .  A
C357        H364   1.084       .  S
C358        C359   1.409       .  A
C359        C360   1.404       .  A
C359        N366   1.439       .  S
C360        C361   1.409       .  A
C360        H365   1.083       .  S
C361        C362   1.416       .  A
C362        N363   1.438       .  S
N363        H367   1.046       .  S
N363        H368   1.046       .  S
N366        H369   1.046       .  S
N366        H370   1.046       .  S
C371        C372   1.403       .  A
C371        C376   1.399       .  A
C371        H378   1.084       .  S
C372        C373   1.410       .  A
C373        C374   1.403       .  A
C373        N380   1.438       .  S
C374        C375   1.407       .  A
C374        H379   1.084       .  S
C375        C376   1.419       .  A
C376        N377   1.432       .  S
N377        H381   1.045       .  S
N377        H382   1.045       .  S
N380        H383   1.045       .  S
N380        H384   1.046       .  S
C385        C386   1.403       .  A
C385        C390   1.405       .  A
C385        H392   1.084       .  S
C386        C387   1.410       .  A
C387        C388   1.404       .  A
C387        N394   1.438       .  S
C388        C389   1.405       .  A
C388        H393   1.084       .  S
C389        C390   1.415       .  A
C390        N391   1.438       .  S
N391        H395   1.046       .  S
N391        H396   1.045       .  S
N394        H397   1.045       .  S
N394        H398   1.046       .  S
C399        C400   1.403       .  A
C399        C404   1.404       .  A
C399        H406   1.084       .  S
C400        C401   1.412       .  A
C401        C402   1.405       .  A
C401        N408   1.438       .  S
C402        C403   1.405       .  A
C402        H407   1.084       .  S
C403        C404   1.414       .  A
C404        N405   1.438       .  S
N405        H409   1.046       .  S
N405        H410   1.044       .  S
N408        H411   1.046       .  S
N408        H412   1.046       .  S
C413        C414   1.403       .  A
C413        C418   1.402       .  A
C413        H420   1.084       .  S
C414        C415   1.416   1_556  A
C415        C416   1.401   1_554  A
C416        C417   1.404       .  A
C416        H421   1.084   1_556  S
C417        C418   1.416       .  A
C418        N419   1.439       .  S
N419        H423   1.046       .  S
N419        H424   1.043       .  S
N422        H425   1.042       .  S
N422        H426   1.046       .  S
C427        C428   1.408       .  A
C427        C432   1.402       .  A
C427        H434   1.083       .  S
C428        C429   1.417       .  A
C429        C430   1.406       .  A
C429        N436   1.438       .  S
C430        C431   1.402       .  A
C430        H435   1.084       .  S
C431        C432   1.408       .  A
N433        H437   1.046       .  S
N433        H438   1.045       .  S
N436        H439   1.046       .  S
N436        H440   1.046       .  S
C441       C1434   1.405       .  A
C441        C446   1.406       .  A
C441        H448   1.084       .  S
C442       C1433   1.405   1_455  A
C442        C443   1.410       .  A
C443        C444   1.404       .  A
C443        N450   1.438       .  S
C444        C445   1.406       .  A
C444        H449   1.084       .  S
C445       C1438   1.411   1_455  A
C446       C1437   1.411       .  A
C446        N447   1.436       .  S
N447        H451   1.046       .  S
N447        H452   1.046       .  S
N450        H453   1.045       .  S
N450        H454   1.046       .  S
C455        C456   1.407       .  A
C455        C460   1.399       .  A
C455        H462   1.084       .  S
C456        C457   1.418       .  A
C457        C458   1.403       .  A
C457        N464   1.438   1_556  S
C458        C459   1.401       .  A
C459        C460   1.413       .  A
C460        N461   1.439       .  S
N461        H465   1.046       .  S
N461        H466   1.044       .  S
N464        H467   1.046       .  S
C469        C470   1.403       .  A
C469        C474   1.408       .  A
C469        H476   1.084   1_556  S
C470        C471   1.409       .  A
C471        C472   1.401       .  A
C472        C473   1.404       .  A
C472        H477   1.084       .  S
C473        C474   1.417       .  A
C474        N475   1.438   1_556  S
N475        H479   1.046       .  S
N475        H480   1.046       .  S
N478        H481   1.046       .  S
N478        H482   1.046       .  S
C483       C1476   1.401       .  A
C483        C488   1.405       .  A
C483        H490   1.084       .  S
C484       C1475   1.401   1_455  A
C484        C485   1.410       .  A
C485        C486   1.401       .  A
C485        N492   1.433       .  S
C486        C487   1.403       .  A
C486        H491   1.084       .  S
C487       C1480   1.416   1_455  A
C488       C1479   1.416       .  A
C488        N489   1.438       .  S
N489        H493   1.046       .  S
N489        H494   1.046       .  S
N492        H495   1.046       .  S
N492        H496   1.046       .  S
C497       C1490   1.408   1_455  A
C497        C502   1.404       .  A
C497        C732   1.481       .  S
C498       C1489   1.408       .  A
C498        C747   1.405   1_554  A
C498        H503   1.084       .  S
C499        C746   1.405       .  A
C499        C500   1.402       .  A
C499        C718   1.484       .  S
C500       C1493   1.400       .  A
C500        H504   1.084       .  S
C501       C1492   1.400       .  A
C501        C750   1.398       .  A
C501        C707   1.477       .  S
C502        C749   1.398   1_554  A
C502        H505   1.084       .  S
C506       C1499   1.405   1_455  A
C506        C511   1.408       .  A
C506        C690   1.484       .  S
C507       C1498   1.405       .  A
C507        C756   1.401   1_554  A
C507        H512   1.084       .  S
C508        C755   1.401       .  A
C508       C1501   1.401       .  A
C508        C679   1.478       .  S
C509       C1500   1.401   1_455  A
C509        C510   1.400       .  A
C509        H513   1.085       .  S
C510        C759   1.403       .  A
C510        C662   1.477       .  S
C511        C758   1.403   1_554  A
C511        H514   1.084       .  S
Fe515       O531   2.056       .  S
Fe515       O521   2.067       .  S
Fe515       O528   2.073       .  S
Fe515       O520   2.060       .  S
Fe515       O526   1.968       .  S
Fe516       O519   2.058       .  S
Fe516       O523   2.074       .  S
Fe516       O527   2.052       .  S
Fe516       O532   2.069       .  S
Fe516       O526   1.967       .  S
Fe517       O535   2.065       .  S
Fe517       O522   2.060       .  S
Fe517       O529   2.058       .  S
Fe517       O518   2.066       .  S
Fe517       O526   1.969       .  S
O518        C525   1.272       .  A
O519        C533   1.270       .  A
O520        C525   1.270       .  A
O521        C524   1.269       .  A
O522        C534   1.267       .  A
O523        C536   1.271       .  A
C524        C721   1.485       .  S
C524        O529   1.266       .  A
C525        C676   1.489       .  S
O527        C530   1.266       .  A
O528        C530   1.269       .  A
C530        C637   1.480       .  S
O531        C536   1.268       .  A
O532        C534   1.269       .  A
C533        C704   1.487       .  S
C533        O535   1.270       .  A
C534        C665   1.477       .  S
C536        C651   1.480       .  S
C537        C538   1.406       .  A
C537        C542   1.407       .  A
C537        C648   1.484       .  S
C538        C539   1.402       .  A
C538        H543   1.084       .  S
C539        C540   1.402       .  A
C539        C620   1.483       .  S
C540        C541   1.401       .  A
C540        H544   1.084       .  S
C541        C542   1.403       .  A
C541        C606   1.481       .  S
C542        H545   1.083       .  S
C546        C547   1.408       .  A
C546        C551   1.406       .  A
C546        C634   1.481       .  S
C547        C548   1.403       .  A
C547        H552   1.083       .  S
C548        C549   1.400       .  A
C548        C592   1.480       .  S
C549        C550   1.399       .  A
C549        H553   1.085       .  S
C550        C551   1.399       .  A
C550        C578   1.475       .  S
C551        H554   1.084       .  S
Fe555       O571   2.061       .  S
Fe555       O561   2.069       .  S
Fe555      O1558   1.965       .  S
Fe556       O559   2.059       .  S
Fe556       O563   2.064       .  S
Fe556       O566   1.966       .  S
Fe557       O575   2.064       .  S
Fe557      O1561   2.068   1_455  S
Fe557      O1054   2.065   1_465  S
Fe557       O566   1.971       .  S
O558      Fe1053   2.065       .  S
O558        C565   1.268       .  A
O559        C573   1.268       .  A
O560        C565   1.265       .  A
O561        C564   1.272       .  A
O562        C574   1.272       .  A
O563        C576   1.269       .  A
C564        C609   1.490       .  S
C564        O569   1.272       .  A
C565        C581   1.482       .  S
O566      Fe1547   1.965   1_455  S
O567        C570   1.269   1_455  A
O568       C1562   1.271       .  A
O569      Fe1549   2.068       .  S
C570        C693   1.483   1_655  S
C570       O1560   1.271       .  A
O571       C1568   1.267       .  A
O572        C574   1.271       .  A
C573        C623   1.486       .  S
C573        O575   1.267       .  A
C574        C595   1.491       .  S
C576        C735   1.480       .  S
C576       O1563   1.267   1_455  A
C577        C578   1.399       .  A
C577        C582   1.394       .  A
C577        H584   1.084       .  S
C578        C579   1.409       .  A
C579        C580   1.407       .  A
C579        N586   1.438       .  S
C580        C581   1.407       .  A
C580        H585   1.084       .  S
C581        C582   1.418       .  A
C582        N583   1.432       .  S
N583        H587   1.044       .  S
N583        H588   1.044       .  S
N586        H589   1.046       .  S
N586        H590   1.046       .  S
C591        C592   1.402       .  A
C591        C596   1.404       .  A
C591        H598   1.084       .  S
C592        C593   1.409       .  A
C593        C594   1.406       .  A
C593        N600   1.438       .  S
C594        C595   1.410       .  A
C594        H599   1.083       .  S
C595        C596   1.417       .  A
C596        N597   1.438       .  S
N597        H601   1.046       .  S
N597        H602   1.046       .  S
N600        H603   1.046       .  S
N600        H604   1.046       .  S
C605        C606   1.403       .  A
C605        C610   1.407       .  A
C605        H612   1.084       .  S
C606        C607   1.409       .  A
C607        C608   1.404       .  A
C607        N614   1.439       .  S
C608        C609   1.409       .  A
C608        H613   1.083       .  S
C609        C610   1.416       .  A
C610        N611   1.438       .  S
N611        H615   1.046       .  S
N611        H616   1.046       .  S
N614        H617   1.046       .  S
N614        H618   1.046       .  S
C619        C620   1.403       .  A
C619        C624   1.399       .  A
C619        H626   1.084       .  S
C620        C621   1.410       .  A
C621        C622   1.403       .  A
C621        N628   1.438       .  S
C622        C623   1.407       .  A
C622        H627   1.084       .  S
C623        C624   1.419       .  A
C624        N625   1.432       .  S
N625        H629   1.045       .  S
N625        H630   1.045       .  S
N628        H631   1.045       .  S
N628        H632   1.046       .  S
C633        C634   1.403       .  A
C633        C638   1.405       .  A
C633        H640   1.084       .  S
C634        C635   1.410       .  A
C635        C636   1.404       .  A
C635        N642   1.438       .  S
C636        C637   1.405       .  A
C636        H641   1.084       .  S
C637        C638   1.415       .  A
C638        N639   1.438       .  S
N639        H643   1.046       .  S
N639        H644   1.045       .  S
N642        H645   1.045       .  S
N642        H646   1.046       .  S
C647        C648   1.403       .  A
C647        C652   1.404       .  A
C647        H654   1.084       .  S
C648        C649   1.412       .  A
C649        C650   1.405       .  A
C649        N656   1.438       .  S
C650        C651   1.405       .  A
C650        H655   1.084       .  S
C651        C652   1.414       .  A
C652        N653   1.438       .  S
N653        H657   1.046       .  S
N653        H658   1.044       .  S
N656        H659   1.046       .  S
N656        H660   1.046       .  S
C661        C662   1.403       .  A
C661        C666   1.402       .  A
C661        H668   1.084       .  S
C662        C663   1.416       .  A
C663        C664   1.401       .  A
C663        N918   1.439       .  S
C664        C665   1.404       .  A
C664        H669   1.084       .  S
C665        C666   1.416       .  A
C666        N667   1.439       .  S
N667        H671   1.046       .  S
N667        H672   1.043       .  S
N670        C911   1.439       .  S
N670        H673   1.042       .  S
N670        H674   1.046       .  S
C675        C676   1.408       .  A
C675        C680   1.402       .  A
C675        H682   1.083       .  S
C676        C677   1.417       .  A
C677        C678   1.406       .  A
C677        N684   1.438       .  S
C678        C679   1.402       .  A
C678        H683   1.084       .  S
C679        C680   1.408       .  A
C680        N929   1.438       .  S
N681        C928   1.438   1_554  S
N681        H685   1.046       .  S
N681        H686   1.045       .  S
N684        H687   1.046       .  S
N684        H688   1.046       .  S
C689       C1682   1.405       .  A
C689        C694   1.406       .  A
C689        H696   1.084       .  S
C690       C1681   1.405   1_455  A
C690        C691   1.410       .  A
C691        C692   1.404       .  A
C691        N698   1.438       .  S
C692        C693   1.406       .  A
C692        H697   1.084       .  S
C693       C1686   1.411   1_455  A
C694       C1685   1.411       .  A
C694        N695   1.436       .  S
N695        H699   1.046       .  S
N695        H700   1.046       .  S
N698        H701   1.045       .  S
N698        H702   1.046       .  S
C703        C704   1.407       .  A
C703        C708   1.399       .  A
C703        H710   1.084       .  S
C704        C705   1.418       .  A
C705        C706   1.403       .  A
C705        N712   1.438       .  S
C706        C707   1.401       .  A
C706        H959   1.084       .  S
C707        C708   1.413       .  A
C708        N709   1.439       .  S
N709        H713   1.046       .  S
N709        H714   1.044       .  S
H711        C954   1.084   1_554  S
N712        H715   1.046       .  S
N712        H964   1.045       .  S
H716        N960   1.045       .  S
C717        C718   1.403       .  A
C717        C722   1.408       .  A
C717        H724   1.084       .  S
C718        C719   1.409       .  A
C719        C720   1.401       .  A
C719        N974   1.433       .  S
C720        C721   1.404       .  A
C720        H725   1.084       .  S
C721        C722   1.417       .  A
C722        N723   1.438       .  S
N723        H727   1.046       .  S
N723        H728   1.046       .  S
N726        C967   1.433       .  S
N726        H729   1.046       .  S
N726        H730   1.046       .  S
C731       C1724   1.401       .  A
C731        C736   1.405       .  A
C731        H738   1.084       .  S
C732       C1723   1.401   1_455  A
C732        C733   1.410       .  A
C733        C734   1.401       .  A
C733        N740   1.433       .  S
C734        C735   1.403       .  A
C734        H739   1.084       .  S
C735       C1728   1.416   1_455  A
C736       C1727   1.416       .  A
C736        N737   1.438       .  S
N737        H741   1.046       .  S
N737        H742   1.046       .  S
N740        H743   1.046       .  S
N740        H744   1.046       .  S
C745       C1738   1.408   1_455  A
C745        C750   1.404       .  A
C745        C980   1.481       .  S
C746       C1737   1.408       .  A
C746        H751   1.084       .  S
C747        C748   1.402       .  A
C747        C966   1.484       .  S
C748       C1741   1.400       .  A
C748        H752   1.084       .  S
C749       C1740   1.400       .  A
C749        C955   1.477       .  S
C750        H753   1.084       .  S
C754       C1747   1.405   1_455  A
C754        C759   1.408       .  A
C754        C938   1.484       .  S
C755       C1746   1.405       .  A
C755        H760   1.084       .  S
C756       C1749   1.401       .  A
C756        C927   1.478       .  S
C757       C1748   1.401   1_455  A
C757        C758   1.400       .  A
C757        H761   1.085       .  S
C758        C910   1.477       .  S
C759        H762   1.084       .  S
Fe763       O779   2.056       .  S
Fe763       O769   2.067       .  S
Fe763       O776   2.073       .  S
Fe763       O768   2.060       .  S
Fe763       O774   1.968       .  S
Fe764       O767   2.058       .  S
Fe764       O771   2.074       .  S
Fe764       O775   2.052       .  S
Fe764       O780   2.069       .  S
Fe764       O774   1.967       .  S
Fe765       O783   2.065       .  S
Fe765       O770   2.060       .  S
Fe765       O777   2.058       .  S
Fe765       O766   2.066       .  S
Fe765       O774   1.969       .  S
O766        C773   1.272       .  A
O767        C781   1.270       .  A
O768        C773   1.270       .  A
O769        C772   1.269       .  A
O770        C782   1.267       .  A
O771        C784   1.271       .  A
C772        C969   1.485       .  S
C772        O777   1.266       .  A
C773        C924   1.489       .  S
O775        C778   1.266       .  A
O776        C778   1.269       .  A
C778        C885   1.480       .  S
O779        C784   1.268       .  A
O780        C782   1.269       .  A
C781        C952   1.487       .  S
C781        O783   1.270       .  A
C782        C913   1.477       .  S
C784        C899   1.480       .  S
C785        C786   1.406       .  A
C785        C790   1.407       .  A
C785        C896   1.484       .  S
C786        C787   1.402       .  A
C786        H791   1.084       .  S
C787        C788   1.402       .  A
C787        C868   1.483       .  S
C788        C789   1.401       .  A
C788        H792   1.084       .  S
C789        C790   1.403       .  A
C789        C854   1.481       .  S
C790        H793   1.083       .  S
C794        C795   1.408       .  A
C794        C799   1.406       .  A
C794        C882   1.481       .  S
C795        C796   1.403       .  A
C795        H800   1.083       .  S
C796        C797   1.400       .  A
C796        C840   1.480       .  S
C797        C798   1.399       .  A
C797        H801   1.085       .  S
C798        C799   1.399       .  A
C798        C826   1.475       .  S
C799        H802   1.084       .  S
Fe803       O819   2.061       .  S
Fe803       O809   2.069       .  S
Fe803      O1806   1.965       .  S
Fe804       O807   2.059       .  S
Fe804       O811   2.064       .  S
Fe804       O814   1.966       .  S
Fe805       O823   2.064       .  S
Fe805      O1809   2.068   1_455  S
Fe805      O1302   2.065   1_465  S
Fe805       O814   1.971       .  S
O806      Fe1301   2.065       .  S
O806        C813   1.268       .  A
O807        C821   1.268       .  A
O808        C813   1.265       .  A
O809        C812   1.272       .  A
O810        C822   1.272       .  A
O811        C824   1.269       .  A
C812        C857   1.490       .  S
C812        O817   1.272       .  A
C813        C829   1.482       .  S
O814      Fe1795   1.965   1_455  S
O815        C818   1.269   1_455  A
O816       C1810   1.271       .  A
O817      Fe1797   2.068       .  S
C818        C941   1.483   1_655  S
C818       O1808   1.271       .  A
O819       C1816   1.267       .  A
O820        C822   1.271       .  A
C821        C871   1.486       .  S
C821        O823   1.267       .  A
C822        C843   1.491       .  S
C824        C983   1.480       .  S
C824       O1811   1.267   1_455  A
C825        C826   1.399       .  A
C825        C830   1.394       .  A
C825        H832   1.084       .  S
C826        C827   1.409       .  A
C827        C828   1.407       .  A
C827        N834   1.438       .  S
C828        C829   1.407       .  A
C828        H833   1.084       .  S
C829        C830   1.418       .  A
C830        N831   1.432       .  S
N831        H835   1.044       .  S
N831        H836   1.044       .  S
N834        H837   1.046       .  S
N834        H838   1.046       .  S
C839        C840   1.402       .  A
C839        C844   1.404       .  A
C839        H846   1.084       .  S
C840        C841   1.409       .  A
C841        C842   1.406       .  A
C841        N848   1.438       .  S
C842        C843   1.410       .  A
C842        H847   1.083       .  S
C843        C844   1.417       .  A
C844        N845   1.438       .  S
N845        H849   1.046       .  S
N845        H850   1.046       .  S
N848        H851   1.046       .  S
N848        H852   1.046       .  S
C853        C854   1.403       .  A
C853        C858   1.407       .  A
C853        H860   1.084       .  S
C854        C855   1.409       .  A
C855        C856   1.404       .  A
C855        N862   1.439       .  S
C856        C857   1.409       .  A
C856        H861   1.083       .  S
C857        C858   1.416       .  A
C858        N859   1.438       .  S
N859        H863   1.046       .  S
N859        H864   1.046       .  S
N862        H865   1.046       .  S
N862        H866   1.046       .  S
C867        C868   1.403       .  A
C867        C872   1.399       .  A
C867        H874   1.084       .  S
C868        C869   1.410       .  A
C869        C870   1.403       .  A
C869        N876   1.438       .  S
C870        C871   1.407       .  A
C870        H875   1.084       .  S
C871        C872   1.419       .  A
C872        N873   1.432       .  S
N873        H877   1.045       .  S
N873        H878   1.045       .  S
N876        H879   1.045       .  S
N876        H880   1.046       .  S
C881        C882   1.403       .  A
C881        C886   1.405       .  A
C881        H888   1.084       .  S
C882        C883   1.410       .  A
C883        C884   1.404       .  A
C883        N890   1.438       .  S
C884        C885   1.405       .  A
C884        H889   1.084       .  S
C885        C886   1.415       .  A
C886        N887   1.438       .  S
N887        H891   1.046       .  S
N887        H892   1.045       .  S
N890        H893   1.045       .  S
N890        H894   1.046       .  S
C895        C896   1.403       .  A
C895        C900   1.404       .  A
C895        H902   1.084       .  S
C896        C897   1.412       .  A
C897        C898   1.405       .  A
C897        N904   1.438       .  S
C898        C899   1.405       .  A
C898        H903   1.084       .  S
C899        C900   1.414       .  A
C900        N901   1.438       .  S
N901        H905   1.046       .  S
N901        H906   1.044       .  S
N904        H907   1.046       .  S
N904        H908   1.046       .  S
C909        C910   1.403       .  A
C909        C914   1.402       .  A
C909        H916   1.084       .  S
C910        C911   1.416   1_556  A
C911        C912   1.401   1_554  A
C912        C913   1.404       .  A
C912        H917   1.084   1_556  S
C913        C914   1.416       .  A
C914        N915   1.439       .  S
N915        H919   1.046       .  S
N915        H920   1.043       .  S
N918        H921   1.042       .  S
N918        H922   1.046       .  S
C923        C924   1.408       .  A
C923        C928   1.402       .  A
C923        H930   1.083       .  S
C924        C925   1.417       .  A
C925        C926   1.406       .  A
C925        N932   1.438       .  S
C926        C927   1.402       .  A
C926        H931   1.084       .  S
C927        C928   1.408       .  A
N929        H933   1.046       .  S
N929        H934   1.045       .  S
N932        H935   1.046       .  S
N932        H936   1.046       .  S
C937       C1930   1.405       .  A
C937        C942   1.406       .  A
C937        H944   1.084       .  S
C938       C1929   1.405   1_455  A
C938        C939   1.410       .  A
C939        C940   1.404       .  A
C939        N946   1.438       .  S
C940        C941   1.406       .  A
C940        H945   1.084       .  S
C941       C1934   1.411   1_455  A
C942       C1933   1.411       .  A
C942        N943   1.436       .  S
N943        H947   1.046       .  S
N943        H948   1.046       .  S
N946        H949   1.045       .  S
N946        H950   1.046       .  S
C951        C952   1.407       .  A
C951        C956   1.399       .  A
C951        H958   1.084       .  S
C952        C953   1.418       .  A
C953        C954   1.403       .  A
C953        N960   1.438   1_556  S
C954        C955   1.401       .  A
C955        C956   1.413       .  A
C956        N957   1.439       .  S
N957        H961   1.046       .  S
N957        H962   1.044       .  S
N960        H963   1.046       .  S
C965        C966   1.403       .  A
C965        C970   1.408       .  A
C965        H972   1.084   1_556  S
C966        C967   1.409       .  A
C967        C968   1.401       .  A
C968        C969   1.404       .  A
C968        H973   1.084       .  S
C969        C970   1.417       .  A
C970        N971   1.438   1_556  S
N971        H975   1.046       .  S
N971        H976   1.046       .  S
N974        H977   1.046       .  S
N974        H978   1.046       .  S
C979       C1972   1.401       .  A
C979        C984   1.405       .  A
C979        H986   1.084       .  S
C980       C1971   1.401   1_455  A
C980        C981   1.410       .  A
C981        C982   1.401       .  A
C981        N988   1.433       .  S
C982        C983   1.403       .  A
C982        H987   1.084       .  S
C983       C1976   1.416   1_455  A
C984       C1975   1.416       .  A
C984        N985   1.438       .  S
N985        H989   1.046       .  S
N985        H990   1.046       .  S
N988        H991   1.046       .  S
N988        H992   1.046       .  S
C993        C998   1.404       .  A
C993       C1228   1.481       .  S
C994       C1243   1.405   1_554  A
C994        H999   1.084       .  S
C995       C1242   1.405       .  A
C995        C996   1.402   1_655  A
C995       C1214   1.484       .  S
C996       H1000   1.084       .  S
C997       C1246   1.398       .  A
C997       C1203   1.477       .  S
C998       C1245   1.398   1_554  A
C998       H1001   1.084       .  S
C1002      C1007   1.408       .  A
C1002      C1186   1.484       .  S
C1003      C1252   1.401   1_554  A
C1003      H1008   1.084       .  S
C1004      C1251   1.401       .  A
C1004      C1175   1.478       .  S
C1005      C1006   1.400       .  A
C1005      H1009   1.085       .  S
C1006      C1255   1.403       .  A
C1006      C1158   1.477       .  S
C1007      C1254   1.403   1_554  A
C1007      H1010   1.084       .  S
Fe1011     O1027   2.056       .  S
Fe1011     O1017   2.067       .  S
Fe1011     O1024   2.073       .  S
Fe1011     O1016   2.060       .  S
Fe1011     O1022   1.968       .  S
Fe1012     O1015   2.058       .  S
Fe1012     O1019   2.074       .  S
Fe1012     O1023   2.052       .  S
Fe1012     O1028   2.069       .  S
Fe1012     O1022   1.967       .  S
Fe1013     O1031   2.065       .  S
Fe1013     O1018   2.060       .  S
Fe1013     O1025   2.058       .  S
Fe1013     O1014   2.066       .  S
Fe1013     O1022   1.969       .  S
O1014      C1021   1.272       .  A
O1015      C1029   1.270       .  A
O1016      C1021   1.270       .  A
O1017      C1020   1.269       .  A
O1018      C1030   1.267       .  A
O1019      C1032   1.271       .  A
C1020      C1217   1.485       .  S
C1020      O1025   1.266       .  A
C1021      C1172   1.489       .  S
O1023      C1026   1.266       .  A
O1024      C1026   1.269       .  A
C1026      C1133   1.480       .  S
O1027      C1032   1.268       .  A
O1028      C1030   1.269       .  A
C1029      C1200   1.487       .  S
C1029      O1031   1.270       .  A
C1030      C1161   1.477       .  S
C1032      C1147   1.480       .  S
C1033      C1034   1.406       .  A
C1033      C1038   1.407       .  A
C1033      C1144   1.484       .  S
C1034      C1035   1.402       .  A
C1034      H1039   1.084       .  S
C1035      C1036   1.402       .  A
C1035      C1116   1.483       .  S
C1036      C1037   1.401       .  A
C1036      H1040   1.084       .  S
C1037      C1038   1.403       .  A
C1037      C1102   1.481       .  S
C1038      H1041   1.083       .  S
C1042      C1043   1.408       .  A
C1042      C1047   1.406       .  A
C1042      C1130   1.481       .  S
C1043      C1044   1.403       .  A
C1043      H1048   1.083       .  S
C1044      C1045   1.400       .  A
C1044      C1088   1.480       .  S
C1045      C1046   1.399       .  A
C1045      H1049   1.085       .  S
C1046      C1047   1.399       .  A
C1046      C1074   1.475       .  S
C1047      H1050   1.084       .  S
Fe1051     O1067   2.061       .  S
Fe1051     O1057   2.069       .  S
Fe1051     O1560   2.072       .  S
Fe1051     O1552   2.054       .  S
Fe1052     O1055   2.059       .  S
Fe1052     O1059   2.064       .  S
Fe1052     O1559   2.067       .  S
Fe1052     O1564   2.062       .  S
Fe1052     O1062   1.966       .  S
Fe1053     O1071   2.064       .  S
Fe1053     O1554   2.071       .  S
Fe1053     O1062   1.971       .  S
O1054      C1061   1.268       .  A
O1055      C1069   1.268       .  A
O1056     Fe1547   2.054   1_545  S
O1056      C1061   1.265       .  A
O1057      C1060   1.272       .  A
O1058     Fe1549   2.071   1_545  S
O1058      C1070   1.272       .  A
O1059      C1072   1.269       .  A
C1060      C1105   1.490       .  S
C1060      O1065   1.272       .  A
C1061      C1077   1.482       .  S
O1063     Fe1548   2.067   1_545  S
O1063      C1066   1.269       .  A
O1064     Fe1547   2.072   1_545  S
C1066      C1189   1.483       .  S
O1068     Fe1548   2.062   1_545  S
O1068      C1070   1.271       .  A
C1069      C1119   1.486       .  S
C1069      O1071   1.267       .  A
C1070      C1091   1.491       .  S
C1072      C1231   1.480       .  S
C1073      C1074   1.399       .  A
C1073      C1078   1.394       .  A
C1073      H1080   1.084       .  S
C1074      C1075   1.409       .  A
C1075      C1076   1.407       .  A
C1075      N1082   1.438       .  S
C1076      C1077   1.407       .  A
C1076      H1081   1.084       .  S
C1077      C1078   1.418       .  A
C1078      N1079   1.432       .  S
N1079      H1083   1.044       .  S
N1079      H1084   1.044       .  S
N1082      H1085   1.046       .  S
N1082      H1086   1.046       .  S
C1087      C1088   1.402       .  A
C1087      C1092   1.404       .  A
C1087      H1094   1.084       .  S
C1088      C1089   1.409       .  A
C1089      C1090   1.406       .  A
C1089      N1096   1.438       .  S
C1090      C1091   1.410       .  A
C1090      H1095   1.083       .  S
C1091      C1092   1.417       .  A
C1092      N1093   1.438       .  S
N1093      H1097   1.046       .  S
N1093      H1098   1.046       .  S
N1096      H1099   1.046       .  S
N1096      H1100   1.046       .  S
C1101      C1102   1.403       .  A
C1101      C1106   1.407       .  A
C1101      H1108   1.084       .  S
C1102      C1103   1.409       .  A
C1103      C1104   1.404       .  A
C1103      N1110   1.439       .  S
C1104      C1105   1.409       .  A
C1104      H1109   1.083       .  S
C1105      C1106   1.416       .  A
C1106      N1107   1.438       .  S
N1107      H1111   1.046       .  S
N1107      H1112   1.046       .  S
N1110      H1113   1.046       .  S
N1110      H1114   1.046       .  S
C1115      C1116   1.403       .  A
C1115      C1120   1.399       .  A
C1115      H1122   1.084       .  S
C1116      C1117   1.410       .  A
C1117      C1118   1.403       .  A
C1117      N1124   1.438       .  S
C1118      C1119   1.407       .  A
C1118      H1123   1.084       .  S
C1119      C1120   1.419       .  A
C1120      N1121   1.432       .  S
N1121      H1125   1.045       .  S
N1121      H1126   1.045       .  S
N1124      H1127   1.045       .  S
N1124      H1128   1.046       .  S
C1129      C1130   1.403       .  A
C1129      C1134   1.405       .  A
C1129      H1136   1.084       .  S
C1130      C1131   1.410       .  A
C1131      C1132   1.404       .  A
C1131      N1138   1.438       .  S
C1132      C1133   1.405       .  A
C1132      H1137   1.084       .  S
C1133      C1134   1.415       .  A
C1134      N1135   1.438       .  S
N1135      H1139   1.046       .  S
N1135      H1140   1.045       .  S
N1138      H1141   1.045       .  S
N1138      H1142   1.046       .  S
C1143      C1144   1.403       .  A
C1143      C1148   1.404       .  A
C1143      H1150   1.084       .  S
C1144      C1145   1.412       .  A
C1145      C1146   1.405       .  A
C1145      N1152   1.438       .  S
C1146      C1147   1.405       .  A
C1146      H1151   1.084       .  S
C1147      C1148   1.414       .  A
C1148      N1149   1.438       .  S
N1149      H1153   1.046       .  S
N1149      H1154   1.044       .  S
N1152      H1155   1.046       .  S
N1152      H1156   1.046       .  S
C1157      C1158   1.403       .  A
C1157      C1162   1.402       .  A
C1157      H1164   1.084       .  S
C1158      C1159   1.416       .  A
C1159      C1160   1.401       .  A
C1159      N1414   1.439       .  S
C1160      C1161   1.404       .  A
C1160      H1165   1.084       .  S
C1161      C1162   1.416       .  A
C1162      N1163   1.439       .  S
N1163      H1167   1.046       .  S
N1163      H1168   1.043       .  S
N1166      C1407   1.439       .  S
N1166      H1169   1.042       .  S
N1166      H1170   1.046       .  S
C1171      C1172   1.408       .  A
C1171      C1176   1.402       .  A
C1171      H1178   1.083       .  S
C1172      C1173   1.417       .  A
C1173      C1174   1.406       .  A
C1173      N1180   1.438       .  S
C1174      C1175   1.402       .  A
C1174      H1179   1.084       .  S
C1175      C1176   1.408       .  A
C1176      N1425   1.438       .  S
N1177      C1424   1.438   1_554  S
N1177      H1181   1.046       .  S
N1177      H1182   1.045       .  S
N1180      H1183   1.046       .  S
N1180      H1184   1.046       .  S
C1185      C1190   1.406       .  A
C1185      H1192   1.084       .  S
C1186      C1187   1.410       .  A
C1187      C1188   1.404       .  A
C1187      N1194   1.438       .  S
C1188      C1189   1.406       .  A
C1188      H1193   1.084       .  S
C1190      N1191   1.436       .  S
N1191      H1195   1.046       .  S
N1191      H1196   1.046       .  S
N1194      H1197   1.045       .  S
N1194      H1198   1.046       .  S
C1199      C1200   1.407       .  A
C1199      C1204   1.399       .  A
C1199      H1206   1.084       .  S
C1200      C1201   1.418       .  A
C1201      C1202   1.403       .  A
C1201      N1208   1.438       .  S
C1202      C1203   1.401       .  A
C1202      H1455   1.084       .  S
C1203      C1204   1.413       .  A
C1204      N1205   1.439       .  S
N1205      H1209   1.046       .  S
N1205      H1210   1.044       .  S
H1207      C1450   1.084   1_554  S
N1208      H1211   1.046       .  S
N1208      H1460   1.045       .  S
H1212      N1456   1.045       .  S
C1213      C1214   1.403       .  A
C1213      C1218   1.408       .  A
C1213      H1220   1.084       .  S
C1214      C1215   1.409       .  A
C1215      C1216   1.401       .  A
C1215      N1470   1.433       .  S
C1216      C1217   1.404       .  A
C1216      H1221   1.084       .  S
C1217      C1218   1.417       .  A
C1218      N1219   1.438       .  S
N1219      H1223   1.046       .  S
N1219      H1224   1.046       .  S
N1222      C1463   1.433       .  S
N1222      H1225   1.046       .  S
N1222      H1226   1.046       .  S
C1227      C1232   1.405       .  A
C1227      H1234   1.084       .  S
C1228      C1229   1.410       .  A
C1229      C1230   1.401       .  A
C1229      N1236   1.433       .  S
C1230      C1231   1.403       .  A
C1230      H1235   1.084       .  S
C1232      N1233   1.438       .  S
N1233      H1237   1.046       .  S
N1233      H1238   1.046       .  S
N1236      H1239   1.046       .  S
N1236      H1240   1.046       .  S
C1241      C1246   1.404       .  A
C1241      C1476   1.481       .  S
C1242      H1247   1.084       .  S
C1243      C1244   1.402   1_655  A
C1243      C1462   1.484       .  S
C1244      H1248   1.084       .  S
C1245      C1451   1.477       .  S
C1246      H1249   1.084       .  S
C1250      C1255   1.408       .  A
C1250      C1434   1.484       .  S
C1251      H1256   1.084       .  S
C1252      C1423   1.478       .  S
C1253      C1254   1.400       .  A
C1253      H1257   1.085       .  S
C1254      C1406   1.477       .  S
C1255      H1258   1.084       .  S
Fe1259     O1275   2.056       .  S
Fe1259     O1265   2.067       .  S
Fe1259     O1272   2.073       .  S
Fe1259     O1264   2.060       .  S
Fe1259     O1270   1.968       .  S
Fe1260     O1263   2.058       .  S
Fe1260     O1267   2.074       .  S
Fe1260     O1271   2.052       .  S
Fe1260     O1276   2.069       .  S
Fe1260     O1270   1.967       .  S
Fe1261     O1279   2.065       .  S
Fe1261     O1266   2.060       .  S
Fe1261     O1273   2.058       .  S
Fe1261     O1262   2.066       .  S
Fe1261     O1270   1.969       .  S
O1262      C1269   1.272       .  A
O1263      C1277   1.270       .  A
O1264      C1269   1.270       .  A
O1265      C1268   1.269       .  A
O1266      C1278   1.267       .  A
O1267      C1280   1.271       .  A
C1268      C1465   1.485       .  S
C1268      O1273   1.266       .  A
C1269      C1420   1.489       .  S
O1271      C1274   1.266       .  A
O1272      C1274   1.269       .  A
C1274      C1381   1.480       .  S
O1275      C1280   1.268       .  A
O1276      C1278   1.269       .  A
C1277      C1448   1.487       .  S
C1277      O1279   1.270       .  A
C1278      C1409   1.477       .  S
C1280      C1395   1.480       .  S
C1281      C1282   1.406       .  A
C1281      C1286   1.407       .  A
C1281      C1392   1.484       .  S
C1282      C1283   1.402       .  A
C1282      H1287   1.084       .  S
C1283      C1284   1.402       .  A
C1283      C1364   1.483       .  S
C1284      C1285   1.401       .  A
C1284      H1288   1.084       .  S
C1285      C1286   1.403       .  A
C1285      C1350   1.481       .  S
C1286      H1289   1.083       .  S
C1290      C1291   1.408       .  A
C1290      C1295   1.406       .  A
C1290      C1378   1.481       .  S
C1291      C1292   1.403       .  A
C1291      H1296   1.083       .  S
C1292      C1293   1.400       .  A
C1292      C1336   1.480       .  S
C1293      C1294   1.399       .  A
C1293      H1297   1.085       .  S
C1294      C1295   1.399       .  A
C1294      C1322   1.475       .  S
C1295      H1298   1.084       .  S
Fe1299     O1315   2.061       .  S
Fe1299     O1305   2.069       .  S
Fe1299     O1808   2.072       .  S
Fe1299     O1800   2.054       .  S
Fe1300     O1303   2.059       .  S
Fe1300     O1307   2.064       .  S
Fe1300     O1807   2.067       .  S
Fe1300     O1812   2.062       .  S
Fe1300     O1310   1.966       .  S
Fe1301     O1319   2.064       .  S
Fe1301     O1802   2.071       .  S
Fe1301     O1310   1.971       .  S
O1302      C1309   1.268       .  A
O1303      C1317   1.268       .  A
O1304     Fe1795   2.054   1_545  S
O1304      C1309   1.265       .  A
O1305      C1308   1.272       .  A
O1306     Fe1797   2.071   1_545  S
O1306      C1318   1.272       .  A
O1307      C1320   1.269       .  A
C1308      C1353   1.490       .  S
C1308      O1313   1.272       .  A
C1309      C1325   1.482       .  S
O1311     Fe1796   2.067   1_545  S
O1311      C1314   1.269       .  A
O1312     Fe1795   2.072   1_545  S
C1314      C1437   1.483       .  S
O1316     Fe1796   2.062   1_545  S
O1316      C1318   1.271       .  A
C1317      C1367   1.486       .  S
C1317      O1319   1.267       .  A
C1318      C1339   1.491       .  S
C1320      C1479   1.480       .  S
C1321      C1322   1.399       .  A
C1321      C1326   1.394       .  A
C1321      H1328   1.084       .  S
C1322      C1323   1.409       .  A
C1323      C1324   1.407       .  A
C1323      N1330   1.438       .  S
C1324      C1325   1.407       .  A
C1324      H1329   1.084       .  S
C1325      C1326   1.418       .  A
C1326      N1327   1.432       .  S
N1327      H1331   1.044       .  S
N1327      H1332   1.044       .  S
N1330      H1333   1.046       .  S
N1330      H1334   1.046       .  S
C1335      C1336   1.402       .  A
C1335      C1340   1.404       .  A
C1335      H1342   1.084       .  S
C1336      C1337   1.409       .  A
C1337      C1338   1.406       .  A
C1337      N1344   1.438       .  S
C1338      C1339   1.410       .  A
C1338      H1343   1.083       .  S
C1339      C1340   1.417       .  A
C1340      N1341   1.438       .  S
N1341      H1345   1.046       .  S
N1341      H1346   1.046       .  S
N1344      H1347   1.046       .  S
N1344      H1348   1.046       .  S
C1349      C1350   1.403       .  A
C1349      C1354   1.407       .  A
C1349      H1356   1.084       .  S
C1350      C1351   1.409       .  A
C1351      C1352   1.404       .  A
C1351      N1358   1.439       .  S
C1352      C1353   1.409       .  A
C1352      H1357   1.083       .  S
C1353      C1354   1.416       .  A
C1354      N1355   1.438       .  S
N1355      H1359   1.046       .  S
N1355      H1360   1.046       .  S
N1358      H1361   1.046       .  S
N1358      H1362   1.046       .  S
C1363      C1364   1.403       .  A
C1363      C1368   1.399       .  A
C1363      H1370   1.084       .  S
C1364      C1365   1.410       .  A
C1365      C1366   1.403       .  A
C1365      N1372   1.438       .  S
C1366      C1367   1.407       .  A
C1366      H1371   1.084       .  S
C1367      C1368   1.419       .  A
C1368      N1369   1.432       .  S
N1369      H1373   1.045       .  S
N1369      H1374   1.045       .  S
N1372      H1375   1.045       .  S
N1372      H1376   1.046       .  S
C1377      C1378   1.403       .  A
C1377      C1382   1.405       .  A
C1377      H1384   1.084       .  S
C1378      C1379   1.410       .  A
C1379      C1380   1.404       .  A
C1379      N1386   1.438       .  S
C1380      C1381   1.405       .  A
C1380      H1385   1.084       .  S
C1381      C1382   1.415       .  A
C1382      N1383   1.438       .  S
N1383      H1387   1.046       .  S
N1383      H1388   1.045       .  S
N1386      H1389   1.045       .  S
N1386      H1390   1.046       .  S
C1391      C1392   1.403       .  A
C1391      C1396   1.404       .  A
C1391      H1398   1.084       .  S
C1392      C1393   1.412       .  A
C1393      C1394   1.405       .  A
C1393      N1400   1.438       .  S
C1394      C1395   1.405       .  A
C1394      H1399   1.084       .  S
C1395      C1396   1.414       .  A
C1396      N1397   1.438       .  S
N1397      H1401   1.046       .  S
N1397      H1402   1.044       .  S
N1400      H1403   1.046       .  S
N1400      H1404   1.046       .  S
C1405      C1406   1.403       .  A
C1405      C1410   1.402       .  A
C1405      H1412   1.084       .  S
C1406      C1407   1.416   1_556  A
C1407      C1408   1.401   1_554  A
C1408      C1409   1.404       .  A
C1408      H1413   1.084   1_556  S
C1409      C1410   1.416       .  A
C1410      N1411   1.439       .  S
N1411      H1415   1.046       .  S
N1411      H1416   1.043       .  S
N1414      H1417   1.042       .  S
N1414      H1418   1.046       .  S
C1419      C1420   1.408       .  A
C1419      C1424   1.402       .  A
C1419      H1426   1.083       .  S
C1420      C1421   1.417       .  A
C1421      C1422   1.406       .  A
C1421      N1428   1.438       .  S
C1422      C1423   1.402       .  A
C1422      H1427   1.084       .  S
C1423      C1424   1.408       .  A
N1425      H1429   1.046       .  S
N1425      H1430   1.045       .  S
N1428      H1431   1.046       .  S
N1428      H1432   1.046       .  S
C1433      C1438   1.406       .  A
C1433      H1440   1.084       .  S
C1434      C1435   1.410       .  A
C1435      C1436   1.404       .  A
C1435      N1442   1.438       .  S
C1436      C1437   1.406       .  A
C1436      H1441   1.084       .  S
C1438      N1439   1.436       .  S
N1439      H1443   1.046       .  S
N1439      H1444   1.046       .  S
N1442      H1445   1.045       .  S
N1442      H1446   1.046       .  S
C1447      C1448   1.407       .  A
C1447      C1452   1.399       .  A
C1447      H1454   1.084       .  S
C1448      C1449   1.418       .  A
C1449      C1450   1.403       .  A
C1449      N1456   1.438   1_556  S
C1450      C1451   1.401       .  A
C1451      C1452   1.413       .  A
C1452      N1453   1.439       .  S
N1453      H1457   1.046       .  S
N1453      H1458   1.044       .  S
N1456      H1459   1.046       .  S
C1461      C1462   1.403       .  A
C1461      C1466   1.408       .  A
C1461      H1468   1.084   1_556  S
C1462      C1463   1.409       .  A
C1463      C1464   1.401       .  A
C1464      C1465   1.404       .  A
C1464      H1469   1.084       .  S
C1465      C1466   1.417       .  A
C1466      N1467   1.438   1_556  S
N1467      H1471   1.046       .  S
N1467      H1472   1.046       .  S
N1470      H1473   1.046       .  S
N1470      H1474   1.046       .  S
C1475      C1480   1.405       .  A
C1475      H1482   1.084       .  S
C1476      C1477   1.410       .  A
C1477      C1478   1.401       .  A
C1477      N1484   1.433       .  S
C1478      C1479   1.403       .  A
C1478      H1483   1.084       .  S
C1480      N1481   1.438       .  S
N1481      H1485   1.046       .  S
N1481      H1486   1.046       .  S
N1484      H1487   1.046       .  S
N1484      H1488   1.046       .  S
C1489      C1494   1.404       .  A
C1489      C1724   1.481       .  S
C1490      C1739   1.405   1_554  A
C1490      H1495   1.084       .  S
C1491      C1738   1.405       .  A
C1491      C1492   1.402   1_655  A
C1491      C1710   1.484       .  S
C1492      H1496   1.084       .  S
C1493      C1742   1.398       .  A
C1493      C1699   1.477       .  S
C1494      C1741   1.398   1_554  A
C1494      H1497   1.084       .  S
C1498      C1503   1.408       .  A
C1498      C1682   1.484       .  S
C1499      C1748   1.401   1_554  A
C1499      H1504   1.084       .  S
C1500      C1747   1.401       .  A
C1500      C1671   1.478       .  S
C1501      C1502   1.400       .  A
C1501      H1505   1.085       .  S
C1502      C1751   1.403       .  A
C1502      C1654   1.477       .  S
C1503      C1750   1.403   1_554  A
C1503      H1506   1.084       .  S
Fe1507     O1523   2.056       .  S
Fe1507     O1513   2.067       .  S
Fe1507     O1520   2.073       .  S
Fe1507     O1512   2.060       .  S
Fe1507     O1518   1.968       .  S
Fe1508     O1511   2.058       .  S
Fe1508     O1515   2.074       .  S
Fe1508     O1519   2.052       .  S
Fe1508     O1524   2.069       .  S
Fe1508     O1518   1.967       .  S
Fe1509     O1527   2.065       .  S
Fe1509     O1514   2.060       .  S
Fe1509     O1521   2.058       .  S
Fe1509     O1510   2.066       .  S
Fe1509     O1518   1.969       .  S
O1510      C1517   1.272       .  A
O1511      C1525   1.270       .  A
O1512      C1517   1.270       .  A
O1513      C1516   1.269       .  A
O1514      C1526   1.267       .  A
O1515      C1528   1.271       .  A
C1516      C1713   1.485       .  S
C1516      O1521   1.266       .  A
C1517      C1668   1.489       .  S
O1519      C1522   1.266       .  A
O1520      C1522   1.269       .  A
C1522      C1629   1.480       .  S
O1523      C1528   1.268       .  A
O1524      C1526   1.269       .  A
C1525      C1696   1.487       .  S
C1525      O1527   1.270       .  A
C1526      C1657   1.477       .  S
C1528      C1643   1.480       .  S
C1529      C1530   1.406       .  A
C1529      C1534   1.407       .  A
C1529      C1640   1.484       .  S
C1530      C1531   1.402       .  A
C1530      H1535   1.084       .  S
C1531      C1532   1.402       .  A
C1531      C1612   1.483       .  S
C1532      C1533   1.401       .  A
C1532      H1536   1.084       .  S
C1533      C1534   1.403       .  A
C1533      C1598   1.481       .  S
C1534      H1537   1.083       .  S
C1538      C1539   1.408       .  A
C1538      C1543   1.406       .  A
C1538      C1626   1.481       .  S
C1539      C1540   1.403       .  A
C1539      H1544   1.083       .  S
C1540      C1541   1.400       .  A
C1540      C1584   1.480       .  S
C1541      C1542   1.399       .  A
C1541      H1545   1.085       .  S
C1542      C1543   1.399       .  A
C1542      C1570   1.475       .  S
C1543      H1546   1.084       .  S
Fe1547     O1563   2.061       .  S
Fe1547     O1553   2.069       .  S
Fe1548     O1551   2.059       .  S
Fe1548     O1555   2.064       .  S
Fe1548     O1558   1.966       .  S
Fe1549     O1567   2.064       .  S
Fe1549     O1558   1.971       .  S
O1550      C1557   1.268       .  A
O1551      C1565   1.268       .  A
O1552      C1557   1.265       .  A
O1553      C1556   1.272       .  A
O1554      C1566   1.272       .  A
O1555      C1568   1.269       .  A
C1556      C1601   1.490       .  S
C1556      O1561   1.272       .  A
C1557      C1573   1.482       .  S
O1559      C1562   1.269       .  A
C1562      C1685   1.483       .  S
O1564      C1566   1.271       .  A
C1565      C1615   1.486       .  S
C1565      O1567   1.267       .  A
C1566      C1587   1.491       .  S
C1568      C1727   1.480       .  S
C1569      C1570   1.399       .  A
C1569      C1574   1.394       .  A
C1569      H1576   1.084       .  S
C1570      C1571   1.409       .  A
C1571      C1572   1.407       .  A
C1571      N1578   1.438       .  S
C1572      C1573   1.407       .  A
C1572      H1577   1.084       .  S
C1573      C1574   1.418       .  A
C1574      N1575   1.432       .  S
N1575      H1579   1.044       .  S
N1575      H1580   1.044       .  S
N1578      H1581   1.046       .  S
N1578      H1582   1.046       .  S
C1583      C1584   1.402       .  A
C1583      C1588   1.404       .  A
C1583      H1590   1.084       .  S
C1584      C1585   1.409       .  A
C1585      C1586   1.406       .  A
C1585      N1592   1.438       .  S
C1586      C1587   1.410       .  A
C1586      H1591   1.083       .  S
C1587      C1588   1.417       .  A
C1588      N1589   1.438       .  S
N1589      H1593   1.046       .  S
N1589      H1594   1.046       .  S
N1592      H1595   1.046       .  S
N1592      H1596   1.046       .  S
C1597      C1598   1.403       .  A
C1597      C1602   1.407       .  A
C1597      H1604   1.084       .  S
C1598      C1599   1.409       .  A
C1599      C1600   1.404       .  A
C1599      N1606   1.439       .  S
C1600      C1601   1.409       .  A
C1600      H1605   1.083       .  S
C1601      C1602   1.416       .  A
C1602      N1603   1.438       .  S
N1603      H1607   1.046       .  S
N1603      H1608   1.046       .  S
N1606      H1609   1.046       .  S
N1606      H1610   1.046       .  S
C1611      C1612   1.403       .  A
C1611      C1616   1.399       .  A
C1611      H1618   1.084       .  S
C1612      C1613   1.410       .  A
C1613      C1614   1.403       .  A
C1613      N1620   1.438       .  S
C1614      C1615   1.407       .  A
C1614      H1619   1.084       .  S
C1615      C1616   1.419       .  A
C1616      N1617   1.432       .  S
N1617      H1621   1.045       .  S
N1617      H1622   1.045       .  S
N1620      H1623   1.045       .  S
N1620      H1624   1.046       .  S
C1625      C1626   1.403       .  A
C1625      C1630   1.405       .  A
C1625      H1632   1.084       .  S
C1626      C1627   1.410       .  A
C1627      C1628   1.404       .  A
C1627      N1634   1.438       .  S
C1628      C1629   1.405       .  A
C1628      H1633   1.084       .  S
C1629      C1630   1.415       .  A
C1630      N1631   1.438       .  S
N1631      H1635   1.046       .  S
N1631      H1636   1.045       .  S
N1634      H1637   1.045       .  S
N1634      H1638   1.046       .  S
C1639      C1640   1.403       .  A
C1639      C1644   1.404       .  A
C1639      H1646   1.084       .  S
C1640      C1641   1.412       .  A
C1641      C1642   1.405       .  A
C1641      N1648   1.438       .  S
C1642      C1643   1.405       .  A
C1642      H1647   1.084       .  S
C1643      C1644   1.414       .  A
C1644      N1645   1.438       .  S
N1645      H1649   1.046       .  S
N1645      H1650   1.044       .  S
N1648      H1651   1.046       .  S
N1648      H1652   1.046       .  S
C1653      C1654   1.403       .  A
C1653      C1658   1.402       .  A
C1653      H1660   1.084       .  S
C1654      C1655   1.416       .  A
C1655      C1656   1.401       .  A
C1655      N1910   1.439       .  S
C1656      C1657   1.404       .  A
C1656      H1661   1.084       .  S
C1657      C1658   1.416       .  A
C1658      N1659   1.439       .  S
N1659      H1663   1.046       .  S
N1659      H1664   1.043       .  S
N1662      C1903   1.439       .  S
N1662      H1665   1.042       .  S
N1662      H1666   1.046       .  S
C1667      C1668   1.408       .  A
C1667      C1672   1.402       .  A
C1667      H1674   1.083       .  S
C1668      C1669   1.417       .  A
C1669      C1670   1.406       .  A
C1669      N1676   1.438       .  S
C1670      C1671   1.402       .  A
C1670      H1675   1.084       .  S
C1671      C1672   1.408       .  A
C1672      N1921   1.438       .  S
N1673      C1920   1.438   1_554  S
N1673      H1677   1.046       .  S
N1673      H1678   1.045       .  S
N1676      H1679   1.046       .  S
N1676      H1680   1.046       .  S
C1681      C1686   1.406       .  A
C1681      H1688   1.084       .  S
C1682      C1683   1.410       .  A
C1683      C1684   1.404       .  A
C1683      N1690   1.438       .  S
C1684      C1685   1.406       .  A
C1684      H1689   1.084       .  S
C1686      N1687   1.436       .  S
N1687      H1691   1.046       .  S
N1687      H1692   1.046       .  S
N1690      H1693   1.045       .  S
N1690      H1694   1.046       .  S
C1695      C1696   1.407       .  A
C1695      C1700   1.399       .  A
C1695      H1702   1.084       .  S
C1696      C1697   1.418       .  A
C1697      C1698   1.403       .  A
C1697      N1704   1.438       .  S
C1698      C1699   1.401       .  A
C1698      H1951   1.084       .  S
C1699      C1700   1.413       .  A
C1700      N1701   1.439       .  S
N1701      H1705   1.046       .  S
N1701      H1706   1.044       .  S
H1703      C1946   1.084   1_554  S
N1704      H1707   1.046       .  S
N1704      H1956   1.045       .  S
H1708      N1952   1.045       .  S
C1709      C1710   1.403       .  A
C1709      C1714   1.408       .  A
C1709      H1716   1.084       .  S
C1710      C1711   1.409       .  A
C1711      C1712   1.401       .  A
C1711      N1966   1.433       .  S
C1712      C1713   1.404       .  A
C1712      H1717   1.084       .  S
C1713      C1714   1.417       .  A
C1714      N1715   1.438       .  S
N1715      H1719   1.046       .  S
N1715      H1720   1.046       .  S
N1718      C1959   1.433       .  S
N1718      H1721   1.046       .  S
N1718      H1722   1.046       .  S
C1723      C1728   1.405       .  A
C1723      H1730   1.084       .  S
C1724      C1725   1.410       .  A
C1725      C1726   1.401       .  A
C1725      N1732   1.433       .  S
C1726      C1727   1.403       .  A
C1726      H1731   1.084       .  S
C1728      N1729   1.438       .  S
N1729      H1733   1.046       .  S
N1729      H1734   1.046       .  S
N1732      H1735   1.046       .  S
N1732      H1736   1.046       .  S
C1737      C1742   1.404       .  A
C1737      C1972   1.481       .  S
C1738      H1743   1.084       .  S
C1739      C1740   1.402   1_655  A
C1739      C1958   1.484       .  S
C1740      H1744   1.084       .  S
C1741      C1947   1.477       .  S
C1742      H1745   1.084       .  S
C1746      C1751   1.408       .  A
C1746      C1930   1.484       .  S
C1747      H1752   1.084       .  S
C1748      C1919   1.478       .  S
C1749      C1750   1.400       .  A
C1749      H1753   1.085       .  S
C1750      C1902   1.477       .  S
C1751      H1754   1.084       .  S
Fe1755     O1771   2.056       .  S
Fe1755     O1761   2.067       .  S
Fe1755     O1768   2.073       .  S
Fe1755     O1760   2.060       .  S
Fe1755     O1766   1.968       .  S
Fe1756     O1759   2.058       .  S
Fe1756     O1763   2.074       .  S
Fe1756     O1767   2.052       .  S
Fe1756     O1772   2.069       .  S
Fe1756     O1766   1.967       .  S
Fe1757     O1775   2.065       .  S
Fe1757     O1762   2.060       .  S
Fe1757     O1769   2.058       .  S
Fe1757     O1758   2.066       .  S
Fe1757     O1766   1.969       .  S
O1758      C1765   1.272       .  A
O1759      C1773   1.270       .  A
O1760      C1765   1.270       .  A
O1761      C1764   1.269       .  A
O1762      C1774   1.267       .  A
O1763      C1776   1.271       .  A
C1764      C1961   1.485       .  S
C1764      O1769   1.266       .  A
C1765      C1916   1.489       .  S
O1767      C1770   1.266       .  A
O1768      C1770   1.269       .  A
C1770      C1877   1.480       .  S
O1771      C1776   1.268       .  A
O1772      C1774   1.269       .  A
C1773      C1944   1.487       .  S
C1773      O1775   1.270       .  A
C1774      C1905   1.477       .  S
C1776      C1891   1.480       .  S
C1777      C1778   1.406       .  A
C1777      C1782   1.407       .  A
C1777      C1888   1.484       .  S
C1778      C1779   1.402       .  A
C1778      H1783   1.084       .  S
C1779      C1780   1.402       .  A
C1779      C1860   1.483       .  S
C1780      C1781   1.401       .  A
C1780      H1784   1.084       .  S
C1781      C1782   1.403       .  A
C1781      C1846   1.481       .  S
C1782      H1785   1.083       .  S
C1786      C1787   1.408       .  A
C1786      C1791   1.406       .  A
C1786      C1874   1.481       .  S
C1787      C1788   1.403       .  A
C1787      H1792   1.083       .  S
C1788      C1789   1.400       .  A
C1788      C1832   1.480       .  S
C1789      C1790   1.399       .  A
C1789      H1793   1.085       .  S
C1790      C1791   1.399       .  A
C1790      C1818   1.475       .  S
C1791      H1794   1.084       .  S
Fe1795     O1811   2.061       .  S
Fe1795     O1801   2.069       .  S
Fe1796     O1799   2.059       .  S
Fe1796     O1803   2.064       .  S
Fe1796     O1806   1.966       .  S
Fe1797     O1815   2.064       .  S
Fe1797     O1806   1.971       .  S
O1798      C1805   1.268       .  A
O1799      C1813   1.268       .  A
O1800      C1805   1.265       .  A
O1801      C1804   1.272       .  A
O1802      C1814   1.272       .  A
O1803      C1816   1.269       .  A
C1804      C1849   1.490       .  S
C1804      O1809   1.272       .  A
C1805      C1821   1.482       .  S
O1807      C1810   1.269       .  A
C1810      C1933   1.483       .  S
O1812      C1814   1.271       .  A
C1813      C1863   1.486       .  S
C1813      O1815   1.267       .  A
C1814      C1835   1.491       .  S
C1816      C1975   1.480       .  S
C1817      C1818   1.399       .  A
C1817      C1822   1.394       .  A
C1817      H1824   1.084       .  S
C1818      C1819   1.409       .  A
C1819      C1820   1.407       .  A
C1819      N1826   1.438       .  S
C1820      C1821   1.407       .  A
C1820      H1825   1.084       .  S
C1821      C1822   1.418       .  A
C1822      N1823   1.432       .  S
N1823      H1827   1.044       .  S
N1823      H1828   1.044       .  S
N1826      H1829   1.046       .  S
N1826      H1830   1.046       .  S
C1831      C1832   1.402       .  A
C1831      C1836   1.404       .  A
C1831      H1838   1.084       .  S
C1832      C1833   1.409       .  A
C1833      C1834   1.406       .  A
C1833      N1840   1.438       .  S
C1834      C1835   1.410       .  A
C1834      H1839   1.083       .  S
C1835      C1836   1.417       .  A
C1836      N1837   1.438       .  S
N1837      H1841   1.046       .  S
N1837      H1842   1.046       .  S
N1840      H1843   1.046       .  S
N1840      H1844   1.046       .  S
C1845      C1846   1.403       .  A
C1845      C1850   1.407       .  A
C1845      H1852   1.084       .  S
C1846      C1847   1.409       .  A
C1847      C1848   1.404       .  A
C1847      N1854   1.439       .  S
C1848      C1849   1.409       .  A
C1848      H1853   1.083       .  S
C1849      C1850   1.416       .  A
C1850      N1851   1.438       .  S
N1851      H1855   1.046       .  S
N1851      H1856   1.046       .  S
N1854      H1857   1.046       .  S
N1854      H1858   1.046       .  S
C1859      C1860   1.403       .  A
C1859      C1864   1.399       .  A
C1859      H1866   1.084       .  S
C1860      C1861   1.410       .  A
C1861      C1862   1.403       .  A
C1861      N1868   1.438       .  S
C1862      C1863   1.407       .  A
C1862      H1867   1.084       .  S
C1863      C1864   1.419       .  A
C1864      N1865   1.432       .  S
N1865      H1869   1.045       .  S
N1865      H1870   1.045       .  S
N1868      H1871   1.045       .  S
N1868      H1872   1.046       .  S
C1873      C1874   1.403       .  A
C1873      C1878   1.405       .  A
C1873      H1880   1.084       .  S
C1874      C1875   1.410       .  A
C1875      C1876   1.404       .  A
C1875      N1882   1.438       .  S
C1876      C1877   1.405       .  A
C1876      H1881   1.084       .  S
C1877      C1878   1.415       .  A
C1878      N1879   1.438       .  S
N1879      H1883   1.046       .  S
N1879      H1884   1.045       .  S
N1882      H1885   1.045       .  S
N1882      H1886   1.046       .  S
C1887      C1888   1.403       .  A
C1887      C1892   1.404       .  A
C1887      H1894   1.084       .  S
C1888      C1889   1.412       .  A
C1889      C1890   1.405       .  A
C1889      N1896   1.438       .  S
C1890      C1891   1.405       .  A
C1890      H1895   1.084       .  S
C1891      C1892   1.414       .  A
C1892      N1893   1.438       .  S
N1893      H1897   1.046       .  S
N1893      H1898   1.044       .  S
N1896      H1899   1.046       .  S
N1896      H1900   1.046       .  S
C1901      C1902   1.403       .  A
C1901      C1906   1.402       .  A
C1901      H1908   1.084       .  S
C1902      C1903   1.416   1_556  A
C1903      C1904   1.401   1_554  A
C1904      C1905   1.404       .  A
C1904      H1909   1.084   1_556  S
C1905      C1906   1.416       .  A
C1906      N1907   1.439       .  S
N1907      H1911   1.046       .  S
N1907      H1912   1.043       .  S
N1910      H1913   1.042       .  S
N1910      H1914   1.046       .  S
C1915      C1916   1.408       .  A
C1915      C1920   1.402       .  A
C1915      H1922   1.083       .  S
C1916      C1917   1.417       .  A
C1917      C1918   1.406       .  A
C1917      N1924   1.438       .  S
C1918      C1919   1.402       .  A
C1918      H1923   1.084       .  S
C1919      C1920   1.408       .  A
N1921      H1925   1.046       .  S
N1921      H1926   1.045       .  S
N1924      H1927   1.046       .  S
N1924      H1928   1.046       .  S
C1929      C1934   1.406       .  A
C1929      H1936   1.084       .  S
C1930      C1931   1.410       .  A
C1931      C1932   1.404       .  A
C1931      N1938   1.438       .  S
C1932      C1933   1.406       .  A
C1932      H1937   1.084       .  S
C1934      N1935   1.436       .  S
N1935      H1939   1.046       .  S
N1935      H1940   1.046       .  S
N1938      H1941   1.045       .  S
N1938      H1942   1.046       .  S
C1943      C1944   1.407       .  A
C1943      C1948   1.399       .  A
C1943      H1950   1.084       .  S
C1944      C1945   1.418       .  A
C1945      C1946   1.403       .  A
C1945      N1952   1.438   1_556  S
C1946      C1947   1.401       .  A
C1947      C1948   1.413       .  A
C1948      N1949   1.439       .  S
N1949      H1953   1.046       .  S
N1949      H1954   1.044       .  S
N1952      H1955   1.046       .  S
C1957      C1958   1.403       .  A
C1957      C1962   1.408       .  A
C1957      H1964   1.084   1_556  S
C1958      C1959   1.409       .  A
C1959      C1960   1.401       .  A
C1960      C1961   1.404       .  A
C1960      H1965   1.084       .  S
C1961      C1962   1.417       .  A
C1962      N1963   1.438   1_556  S
N1963      H1967   1.046       .  S
N1963      H1968   1.046       .  S
N1966      H1969   1.046       .  S
N1966      H1970   1.046       .  S
C1971      C1976   1.405       .  A
C1971      H1978   1.084       .  S
C1972      C1973   1.410       .  A
C1973      C1974   1.401       .  A
C1973      N1980   1.433       .  S
C1974      C1975   1.403       .  A
C1974      H1979   1.084       .  S
C1976      N1977   1.438       .  S
N1977      H1981   1.046       .  S
N1977      H1982   1.046       .  S
N1980      H1983   1.046       .  S
N1980      H1984   1.046       .  S
