geometry optimzed in LAMMPS
_audit_creation_date              2020-11-30 
_audit_creation_method            'lammps2cif' 
_symmetry_space_group_name_H-M    'P1' 
_symmetry_Int_Tables_number       1 
_symmetry_cell_setting            triclinic 
loop_ 
_symmetry_equiv_pos_as_xyz 
  x,y,z 
_cell_length_a                    47.05720169 
_cell_length_b                    42.19220671283988 
_cell_length_c                    23.462124681767307 
_cell_angle_alpha                 89.32956336616724 
_cell_angle_beta                  90.39485984182214 
_cell_angle_gamma                 89.1118098062707 
loop_ 
_atom_site_label 
_atom_site_type_symbol 
_atom_site_fract_x 
_atom_site_fract_y 
_atom_site_fract_z 
_atom_site_charge 
O1          O  0.10042936  0.16364929  0.32685243    -0.73500
O2          O  0.14832402  0.09431615  0.37930799    -0.73500
O3          O  0.09790365  0.09854228  0.31995638    -0.73500
O4          O  0.15023819  0.15735181  0.38634613    -0.73600
O5          O  0.12697987  0.15375288  0.46837228    -0.73500
O6          O  0.07382683  0.09796474  0.40148794    -0.73500
O7          O  0.12395004  0.09171440  0.46050108    -0.73500
O8          O  0.07889010  0.16250074  0.41104318    -0.73500
Ni9        Ni  0.12491774  0.12848330  0.34977368     1.25400
Ni10       Ni  0.09980258  0.12630142  0.43774655     1.25400
C11         C  0.08202481  0.17493512  0.36148155     0.88700
C12         C  0.14547184  0.08392579  0.43047528     0.88700
C13         C  0.07732246  0.08831040  0.35039706     0.88700
C14         C  0.14789236  0.16381971  0.43944184     0.88900
N15         N  0.00605479  0.05659100  0.31528208    -0.35600
N16         N  0.04978820  0.00803644  0.30839905    -0.56200
N17         N  0.00533497  0.46228735  0.28842719    -0.35600
N18         N  0.96129983  0.01138477  0.29210358    -0.56200
C19         C  0.02981021  0.07416260  0.31060674     0.27900
C20         C  0.98363337  0.07581681  0.30191811     0.27900
C21         C  0.02887014  0.44529709  0.27382937     0.27900
C22         C  0.98248457  0.44684295  0.26760625     0.27900
C23         C  0.06587330  0.03187422  0.32829059     0.36600
C24         C  0.06571580  0.48113673  0.31269213     0.36600
C25         C  0.94500562  0.03662202  0.30718522     0.36600
C26         C  0.94450731  0.48559108  0.29375969     0.36600
C27         C  0.02249960  0.10447474  0.29212318    -0.20900
C28         C  0.99327894  0.10557511  0.28686809    -0.20900
C29         C  0.02065165  0.41891566  0.24343076    -0.20900
C30         C  0.99178226  0.41988613  0.23954543    -0.20900
C31         C  0.09235265  0.02020136  0.34489093    -0.22000
C32         C  0.09239756  0.48814183  0.33442885    -0.22000
C33         C  0.91745526  0.02695029  0.31732820    -0.22000
C34         C  0.91706646  0.49465388  0.30823521    -0.22000
C35         C  0.05743274  0.06421878  0.32778909    -0.17300
C36         C  0.95477767  0.06823493  0.31014081    -0.17300
C37         C  0.95351095  0.45467391  0.27793825    -0.17300
C38         C  0.05721898  0.45132730  0.29153143    -0.17300
H39         H  0.03677453  0.12387433  0.28418339     0.15600
H40         H  0.98046220  0.12609745  0.27460920     0.15600
H41         H  0.03343903  0.39961391  0.22734617     0.15600
H42         H  0.97955194  0.40151673  0.21992451     0.15600
H43         H  0.11005617  0.03349919  0.36124646     0.07500
H44         H  0.11032532  0.47218898  0.34120025     0.13900
H45         H  0.89947052  0.04165474  0.32927934     0.13900
H46         H  0.89868245  0.47967690  0.31166181     0.13900
H47         H  0.00482154  0.03443910  0.33501551     0.27100
H48         H  0.00463736  0.48092643  0.31698480     0.27100
N49         N  0.00972890  0.21151158  0.33421531    -0.35600
N50         N  0.05488849  0.25756891  0.32397081    -0.56200
N51         N  0.01111975  0.30617440  0.30273865    -0.35600
N52         N  0.96608856  0.26019825  0.31629956    -0.56200
C53         C  0.03245014  0.19346268  0.35092101     0.27900
C54         C  0.98613066  0.19483922  0.34691003     0.27900
C55         C  0.03426191  0.32405626  0.31247972     0.27900
C56         C  0.98797992  0.32544769  0.30766393     0.27900
C57         C  0.07139953  0.23100778  0.32692466     0.36600
C58         C  0.07193960  0.28194620  0.30989340     0.36600
C59         C  0.94911793  0.23457944  0.31554206     0.36600
C60         C  0.95016485  0.28532481  0.29803975     0.36600
C61         C  0.02292083  0.16493358  0.37296396    -0.20900
C62         C  0.99430093  0.16572624  0.37029040    -0.20900
C63         C  0.02567298  0.35480987  0.32456388    -0.20900
C64         C  0.99645881  0.35565551  0.32161016    -0.20900
C65         C  0.09938195  0.23868809  0.31568995    -0.22000
C66         C  0.09966507  0.27089831  0.30429440    -0.22000
C67         C  0.92201818  0.24362566  0.29764483    -0.22000
C68         C  0.92277208  0.27567700  0.28598386    -0.22000
C69         C  0.06161376  0.20064908  0.34393764    -0.17300
C70         C  0.95745629  0.20385666  0.33500476    -0.17300
C71         C  0.95960716  0.31706489  0.29581716    -0.17300
C72         C  0.06291546  0.31417536  0.30589523    -0.17300
H73         H  0.03472463  0.14415486  0.38692749     0.15600
H74         H  0.98172174  0.14554118  0.38173140     0.15600
H75         H  0.03913067  0.37466316  0.33405602     0.15600
H76         H  0.98293476  0.37618597  0.32869679     0.15600
H77         H  0.11773043  0.22291546  0.31621042     0.13900
H78         H  0.11822953  0.28471375  0.29449273     0.13900
H79         H  0.90351686  0.22891852  0.29365328     0.13900
H80         H  0.90500550  0.29027242  0.27149786     0.13900
H81         H  0.01037249  0.23236077  0.31066255     0.27100
H82         H  0.01129507  0.28354815  0.28573762     0.27100
O83         O  0.13852892  0.35238242  0.20135035    -0.73500
O84         O  0.08090383  0.41385333  0.23249139    -0.73500
O85         O  0.13416701  0.41490936  0.19486785    -0.73500
O86         O  0.08398990  0.34917753  0.23891860    -0.73600
O87         O  0.09940597  0.35157748  0.32888123    -0.73500
O88         O  0.15065357  0.41780447  0.28409883    -0.73500
O89         O  0.09579920  0.41669059  0.32252053    -0.73500
O90         O  0.15417584  0.35473279  0.29129700    -0.73500
Ni91       Ni  0.10862173  0.38231751  0.21405362     1.25400
Ni92       Ni  0.12534816  0.38529356  0.31024430     1.25400
C93         C  0.15708074  0.34553192  0.23987988     0.88700
C94         C  0.07915454  0.42609063  0.28199879     0.88700
C95         C  0.15161713  0.42588835  0.23123869     0.88700
C96         C  0.08353593  0.33920057  0.29064595     0.88900
C97         C  0.74184077  0.22062580  0.13744683     0.87500
C98         C  0.76035338  0.24524657  0.16685269    -0.52800
C99         C  0.77454869  0.26473969  0.13004997     0.10400
C100        C  0.76867565  0.25767249  0.06638322     0.21300
C101        C  0.72254766  0.23973063  0.09694401    -0.53500
C102        C  0.73624220  0.25823569  0.05861503     0.10500
C103        C  0.76325468  0.20314345  0.09880308    -0.53000
C104        C  0.77681996  0.22260201  0.06115267     0.11100
H105        H  0.76527972  0.24460032  0.21199720     0.15600
H106        H  0.77995397  0.27321790  0.03580758     0.01300
H107        H  0.69953639  0.23776892  0.09736976     0.15900
H108        H  0.76813605  0.17795148  0.10231852     0.15700
C109        C  0.77604372  0.02580279  0.01642694     0.87500
C110        C  0.79220801  0.00236280  0.05497533    -0.52800
C111        C  0.77546130  0.48346571  0.08695725     0.10400
C112        C  0.74359889  0.48894442  0.07710759     0.21300
C113        C  0.75590131  0.00554627  0.98073216    -0.53500
C114        C  0.73902462  0.48612044  0.01218558     0.10500
C115        C  0.75553254  0.04380580  0.05678923    -0.53000
C116        C  0.73870545  0.02420139  0.08859336     0.11100
H117        H  0.81528595  0.00121397  0.05776950     0.15600
H118        H  0.73004927  0.47361224  0.10394849     0.01300
H119        H  0.75404755  0.00721454  0.43510436     0.15900
H120        H  0.75370363  0.06944558  0.05868455     0.15700
O121        O  0.65156158  0.14167328  0.29625740    -0.73500
O122        O  0.59809393  0.07727778  0.33615521    -0.73500
O123        O  0.65079000  0.07891708  0.28442439    -0.73500
O124        O  0.59928144  0.14205668  0.34592305    -0.73600
O125        O  0.57842129  0.14633011  0.26043895    -0.73500
O126        O  0.62948356  0.08475737  0.19964255    -0.73500
O127        O  0.57850897  0.08204687  0.24985483    -0.73500
O128        O  0.63037549  0.14710591  0.21116048    -0.73500
Ni129      Ni  0.62548666  0.10966754  0.31912282     1.25400
Ni130      Ni  0.60326278  0.11530048  0.22765784     1.25400
C131        C  0.65087101  0.15297187  0.24545484     0.88700
C132        C  0.57939569  0.06901539  0.29939652     0.88700
C133        C  0.64957947  0.07326008  0.23071082     0.88700
C134        C  0.58074714  0.15505598  0.31225552     0.88900
O135        O  0.58565737  0.32944109  0.42307724    -0.73500
O136        O  0.63339450  0.39765732  0.45960428    -0.73500
O137        O  0.57962487  0.39434198  0.42005280    -0.73500
O138        O  0.63913297  0.33496492  0.46057314    -0.73600
O139        O  0.65417353  0.33494901  0.37045895    -0.73500
O140        O  0.59596613  0.39648832  0.33108851    -0.73500
O141        O  0.65025154  0.39852605  0.37082988    -0.73500
O142        O  0.59913258  0.33103618  0.33227138    -0.73500
Ni143      Ni  0.60869250  0.36403995  0.44368787     1.25400
Ni144      Ni  0.62527388  0.36522738  0.34762592     1.25400
C145        C  0.58405110  0.31898504  0.37232557     0.88700
C146        C  0.65088853  0.40784982  0.42268928     0.88700
C147        C  0.57882286  0.40630237  0.36948454     0.88700
C148        C  0.65690418  0.32618171  0.42262500     0.88900
O149        O  0.36511630  0.39538037  0.37905557    -0.73500
O150        O  0.41969235  0.33051666  0.34276673    -0.73500
O151        O  0.36777047  0.33256769  0.39377586    -0.73500
O152        O  0.41709378  0.39539040  0.32949779    -0.73600
O153        O  0.43905822  0.39829481  0.41387749    -0.73500
O154        O  0.38701163  0.34113627  0.47940835    -0.73500
O155        O  0.43780746  0.33415303  0.43031466    -0.73500
O156        O  0.38758935  0.40333534  0.46175850    -0.73500
Ni157      Ni  0.39183246  0.36316373  0.35783677     1.25400
Ni158      Ni  0.41380832  0.36937652  0.44907449     1.25400
C159        C  0.36707926  0.40931121  0.42699548     0.88700
C160        C  0.43737844  0.32107411  0.38132592     0.88700
C161        C  0.36811047  0.32863957  0.44810394     0.88700
C162        C  0.43583826  0.40763717  0.36221525     0.88900
C163        C  0.28211580  0.48409353  0.04143199     0.87500
C164        C  0.26417655  0.50730820  0.00536246    -0.52800
C165        C  0.24439849  0.02418202  0.03515833     0.10400
C166        C  0.24617283  0.01808562  0.10025253     0.21300
C167        C  0.29590763  0.50395148  0.08769304    -0.53500
C168        C  0.27745645  0.02193918  0.11788994     0.10500
C169        C  0.26046127  0.46423634  0.07566888    -0.53000
C170        C  0.24164287  0.48238257  0.10617992     0.11100
H171        H  0.26605190  0.50870997  0.45924969     0.15600
H172        H  0.23115907  0.03224447  0.12624475     0.01300
H173        H  0.31834948  0.00272717  0.09869502     0.15900
H174        H  0.26021509  0.43853277  0.07688033     0.15700
O175        O  0.43027540  0.08437748  0.25072123    -0.73500
O176        O  0.38399058  0.15700913  0.21762046    -0.73500
O177        O  0.43717542  0.14841145  0.25999761    -0.73500
O178        O  0.37695085  0.09508279  0.20981882    -0.73600
O179        O  0.36138133  0.09043868  0.29915463    -0.73500
O180        O  0.41852167  0.14899773  0.34711082    -0.73500
O181        O  0.36436244  0.15349380  0.30367793    -0.73500
O182        O  0.41592149  0.08388660  0.34099575    -0.73500
Ni183      Ni  0.40791791  0.12115325  0.23170743     1.25400
Ni184      Ni  0.38963897  0.11907377  0.32627301     1.25400
C185        C  0.43152699  0.07252526  0.30111013     0.88700
C186        C  0.36496097  0.16547757  0.25313357     0.88700
C187        C  0.43695347  0.15876023  0.31118275     0.88700
C188        C  0.35845011  0.08557934  0.24569338     0.88900
C189        C  0.23513124  0.23115641  0.06373470     0.87500
C190        C  0.22118345  0.25559244  0.10264739    -0.52800
C191        C  0.23974060  0.27234996  0.13431275     0.10400
C192        C  0.27108032  0.26462025  0.12239605     0.21300
C193        C  0.25468265  0.25162859  0.02701390    -0.53500
C194        C  0.27425368  0.26806689  0.05726762     0.10500
C195        C  0.25505556  0.21121794  0.10282345    -0.53000
C196        C  0.27392115  0.22888181  0.13314220     0.11100
H197        H  0.19840724  0.26000082  0.10473729     0.15600
H198        H  0.28621132  0.27850416  0.14814807     0.01300
H199        H  0.25321893  0.25369021  0.48102949     0.15900
H200        H  0.25488681  0.18549176  0.10476437     0.15700
N201        N  0.50625649  0.44186334  0.34576314    -0.35600
N202        N  0.54983103  0.48866378  0.33526749    -0.56200
N203        N  0.50527822  0.03703245  0.31870720    -0.35600
N204        N  0.46143111  0.48983032  0.32671644    -0.56200
C205        C  0.52968468  0.42302209  0.34163400     0.27900
C206        C  0.48360372  0.42365157  0.33430857     0.27900
C207        C  0.52855079  0.05305691  0.30125562     0.27900
C208        C  0.48198715  0.05401351  0.30112245     0.27900
C209        C  0.56619098  0.46398897  0.35435044     0.36600
C210        C  0.56619109  0.01476887  0.33591721     0.36600
C211        C  0.44512583  0.46468324  0.33979421     0.36600
C212        C  0.44439658  0.01597836  0.32833495     0.36600
C213        C  0.52188359  0.39279134  0.32629061    -0.20900
C214        C  0.49273381  0.39310495  0.32204923    -0.20900
C215        C  0.51961966  0.08063036  0.27305992    -0.20900
C216        C  0.49069701  0.08116722  0.27294235    -0.20900
C217        C  0.59317573  0.47440590  0.36728386    -0.22000
C218        C  0.59333317  0.00643686  0.35502377    -0.22000
C219        C  0.41735261  0.47480365  0.34871534    -0.22000
C220        C  0.41684309  0.00729850  0.34110932    -0.22000
C221        C  0.55765231  0.43189153  0.35530694    -0.17300
C222        C  0.45491707  0.43271667  0.34160335    -0.17300
C223        C  0.45314058  0.04688300  0.31279343    -0.17300
C224        C  0.55748924  0.04498069  0.31395954    -0.17300
H225        H  0.53579057  0.37256765  0.31935729     0.15600
H226        H  0.47964031  0.37300322  0.31212089     0.15600
H227        H  0.53198645  0.09980742  0.25610149     0.15600
H228        H  0.47802760  0.10050261  0.25544797     0.15600
H229        H  0.61105626  0.46022563  0.38247013     0.13900
H230        H  0.61160779  0.02146878  0.35901237     0.13900
H231        H  0.39924483  0.46023022  0.35829582     0.13900
H232        H  0.39824150  0.02260779  0.34364074     0.13900
H233        H  0.50544022  0.46430540  0.36355402     0.27100
H234        H  0.50526437  0.01768933  0.34647545     0.27100
N235        N  0.51049695  0.28580410  0.36065615    -0.35600
N236        N  0.46591239  0.23920516  0.34830019    -0.56200
N237        N  0.50963496  0.19127419  0.33277993    -0.35600
N238        N  0.55446524  0.23761113  0.34778377    -0.56200
C239        C  0.48765494  0.30230820  0.38021554     0.27900
C240        C  0.53401801  0.30180670  0.37635540     0.27900
C241        C  0.48632667  0.17315879  0.33927347     0.27900
C242        C  0.53266220  0.17225090  0.34224729     0.27900
C243        C  0.44941734  0.26575382  0.34941307     0.36600
C244        C  0.44913892  0.21526216  0.33124907     0.36600
C245        C  0.57098849  0.26353326  0.34359986     0.36600
C246        C  0.57053363  0.21240087  0.33188466     0.36600
C247        C  0.49699578  0.32906947  0.40815416    -0.20900
C248        C  0.52581954  0.32869972  0.40587021    -0.20900
C249        C  0.49457522  0.14257092  0.35438528    -0.20900
C250        C  0.52385410  0.14196462  0.35619655    -0.20900
C251        C  0.42175101  0.25842221  0.33413983    -0.22000
C252        C  0.42166689  0.22654712  0.32203424    -0.22000
C253        C  0.59800439  0.25464986  0.32607462    -0.22000
C254        C  0.59765778  0.22226972  0.31823207    -0.22000
C255        C  0.45867261  0.29561083  0.36905472    -0.17300
C256        C  0.56246946  0.29428158  0.36107426    -0.17300
C257        C  0.56120158  0.18057650  0.33202049    -0.17300
C258        C  0.45798669  0.18306504  0.32803264    -0.17300
H259        H  0.48494886  0.34827439  0.42655692     0.15600
H260        H  0.53863271  0.34750242  0.42240894     0.15600
H261        H  0.48085579  0.12274450  0.36287259     0.15600
H262        H  0.53721845  0.12143536  0.36565158     0.15600
H263        H  0.40333368  0.27406232  0.33279032     0.13900
H264        H  0.40329822  0.21309250  0.30955936     0.13900
H265        H  0.61615798  0.26975806  0.32031538     0.13900
H266        H  0.61545011  0.20763208  0.30496523     0.13900
H267        H  0.50996474  0.26709125  0.33230609     0.27100
H268        H  0.50989517  0.21389349  0.31472994     0.27100
O269        O  0.88981762  0.09879964  0.44015118    -0.73500
O270        O  0.93764204  0.16656682  0.39885814    -0.73500
O271        O  0.88913118  0.16073518  0.45389423    -0.73500
O272        O  0.93985461  0.10231848  0.38417695    -0.73600
O273        O  0.91573163  0.10635096  0.30220902    -0.73500
O274        O  0.86614248  0.16890944  0.37178292    -0.73500
O275        O  0.91676055  0.17131793  0.31375917    -0.73500
O276        O  0.86521621  0.10594164  0.35915468    -0.73500
Ni277      Ni  0.91514983  0.13183787  0.42165455     1.25400
Ni278      Ni  0.89025402  0.13841245  0.33329219     1.25400
C279        C  0.86809805  0.09347328  0.40892751     0.88700
C280        C  0.93566333  0.17992298  0.34977027     0.88700
C281        C  0.86855378  0.17335691  0.42574193     0.88700
C282        C  0.93575642  0.09365688  0.33271744     0.88900
O283        O  0.91672267  0.41819328  0.30646243    -0.73500
O284        O  0.86702111  0.34907511  0.27038097    -0.73500
O285        O  0.92070451  0.35293026  0.31444995    -0.73500
O286        O  0.86251832  0.41198520  0.26389754    -0.73600
O287        O  0.87902848  0.40808879  0.17526370    -0.73500
O288        O  0.93936891  0.35324400  0.22730905    -0.73500
O289        O  0.88644479  0.34618926  0.18427832    -0.73500
O290        O  0.93176415  0.41760613  0.21668140    -0.73500
Ni291      Ni  0.89135202  0.38320080  0.29236029     1.25400
Ni292      Ni  0.91002528  0.38135430  0.19812757     1.25400
C293        C  0.93235629  0.42945593  0.26657261     0.88700
C294        C  0.86750642  0.33771496  0.21982827     0.88700
C295        C  0.93904226  0.34261895  0.27869793     0.88700
C296        C  0.85983648  0.41703575  0.21020872     0.88900
C297        C  0.34753419  0.20897793  0.18882016     0.24600
C298        C  0.34187848  0.18660278  0.23198258    -0.23500
C299        C  0.31343495  0.17969964  0.24499189     0.19500
C300        C  0.29116753  0.19373801  0.21332250     0.24500
C301        C  0.29702779  0.21505971  0.16877257    -0.23500
C302        C  0.32531867  0.22313657  0.15765326     0.19400
F303        F  0.33165713  0.24322753  0.11414795    -0.13400
F304        F  0.37471200  0.21595171  0.17482081    -0.15800
F305        F  0.26392706  0.18604136  0.22531290    -0.15800
F306        F  0.30724680  0.15737164  0.28495498    -0.13400
C307        C  0.29434753  0.07301226  0.15287999     0.24600
C308        C  0.28855370  0.04119275  0.16463896    -0.23500
C309        C  0.30251739  0.02566042  0.21065952     0.19500
C310        C  0.32428171  0.04076259  0.24037274     0.24500
C311        C  0.33238710  0.07128135  0.22362820    -0.23500
C312        C  0.31635600  0.08789613  0.18180741     0.19400
F313        F  0.32322261  0.11793848  0.16649561    -0.13400
F314        F  0.28116233  0.08832410  0.10861469    -0.15800
F315        F  0.33923288  0.02452597  0.28122785    -0.15800
F316        F  0.29731331  0.99467765  0.22219264    -0.13400
C317        C  0.33460569  0.28378789  0.45513203     0.24600
C318        C  0.34506597  0.31210251  0.47649262    -0.23500
C319        C  0.33254050  0.32584699  0.52475911     0.19500
C320        C  0.30923443  0.31194495  0.05066014     0.24500
C321        C  0.29839518  0.28368217  0.02912904    -0.23500
C322        C  0.31173140  0.26929508  0.48167647     0.19400
F323        F  0.30327849  0.24077673  0.46204572    -0.13400
F324        F  0.34707848  0.26970716  0.40973698    -0.15800
F325        F  0.29690812  0.32661003  0.09556947    -0.15800
F326        F  0.34218564  0.35361299  0.54569430    -0.13400
C327        C  0.31631323  0.42063221  0.44682389     0.24600
C328        C  0.34449659  0.43094297  0.44496352    -0.23500
C329        C  0.35136959  0.46042846  0.46701808     0.19500
C330        C  0.33070520  0.47864285  0.49392693     0.24500
C331        C  0.30340766  0.46613028  0.00480231    -0.23500
C332        C  0.29584409  0.43807978  0.97663129     0.19400
F333        F  0.26873982  0.42756778  0.97720001    -0.13400
F334        F  0.30901600  0.39267082  0.42310062    -0.15800
F335        F  0.33753344  0.00864390  0.50841190    -0.15800
F336        F  0.37822934  0.47149740  0.46289253    -0.13400
C337        C  0.71122792  0.43639874  0.01169168     0.24600
C338        C  0.71710440  0.46585220  0.98639229    -0.23500
C339        C  0.70119649  0.47595213  0.43817320     0.19500
C340        C  0.68022865  0.45659946  0.41539981     0.24500
C341        C  0.67360558  0.42812845  0.44298175    -0.23500
C342        C  0.68891483  0.41846064  0.49190670     0.19400
F343        F  0.68258264  0.39110700  0.51983328    -0.13400
F344        F  0.72735582  0.42447517  0.05532293    -0.15800
F345        F  0.66556370  0.46635437  0.36819637    -0.15800
F346        F  0.70492220  0.00496649  0.41402857    -0.13400
C347        C  0.66643946  0.03665175  0.15498053     0.24600
C348        C  0.67277932  0.05607546  0.20155377    -0.23500
C349        C  0.70126442  0.06417276  0.21190991     0.19500
C350        C  0.72280650  0.05399128  0.17502646     0.24500
C351        C  0.71622777  0.03527062  0.12780173    -0.23500
C352        C  0.68800706  0.02598040  0.11896877     0.19400
F353        F  0.68107927  0.50769394  0.07386201    -0.13400
F354        F  0.63913577  0.02888591  0.14319794    -0.15800
F355        F  0.75006049  0.06249446  0.18522268    -0.15800
F356        F  0.70797369  0.08378146  0.25528175    -0.13400
C357        C  0.79945638  0.43259635  0.10810840     0.24600
C358        C  0.78851866  0.46132526  0.12825108    -0.23500
C359        C  0.79787551  0.47290009  0.18098034     0.19500
C360        C  0.82011476  0.45743140  0.21053404     0.24500
C361        C  0.83340959  0.43080911  0.18652069    -0.23500
C362        C  0.82178407  0.41738648  0.13706623     0.19400
F363        F  0.83295555  0.39024365  0.11533448    -0.13400
F364        F  0.79051705  0.42107030  0.05735147    -0.15800
F365        F  0.83019178  0.46996034  0.25957868    -0.15800
F366        F  0.78744322  0.50084741  0.20068505    -0.13400
C367        C  0.83514324  0.08459297  0.48843502     0.24600
C368        C  0.84457350  0.07605283  0.43409806    -0.23500
C369        C  0.83076527  0.05220874  0.40455228     0.19500
C370        C  0.80821006  0.03624815  0.42981662     0.24500
C371        C  0.79748341  0.04567202  0.48377166    -0.23500
C372        C  0.81210444  0.06949256  0.01302897     0.19400
F373        F  0.80534634  0.07710734  0.06738538    -0.13400
F374        F  0.84826937  0.10779317  0.51790089    -0.15800
F375        F  0.79897622  0.01005689  0.40291560    -0.15800
F376        F  0.84023099  0.04302867  0.35264572    -0.13400
C377        C  0.68961774  0.19304884  0.25268010     0.24600
C378        C  0.67573320  0.16922778  0.22282184    -0.23500
C379        C  0.68652876  0.15915468  0.17053544     0.19500
C380        C  0.70976420  0.17384414  0.14639258     0.24500
C381        C  0.72320502  0.19926245  0.17392829    -0.23500
C382        C  0.71279950  0.20847980  0.22813731     0.19400
F383        F  0.72320589  0.23375303  0.25608652    -0.13400
F384        F  0.67966242  0.20274458  0.30390448    -0.15800
F385        F  0.71743548  0.16470708  0.09331011    -0.15800
F386        F  0.67423149  0.13504961  0.14198167    -0.13400
C387        C  0.69809780  0.25772837  0.48417409     0.24600
C388        C  0.72043071  0.27393842  0.01106122    -0.23500
C389        C  0.72514477  0.30578797  0.99673310     0.19500
C390        C  0.70589795  0.32200484  0.46126543     0.24500
C391        C  0.68142889  0.30692452  0.44118751    -0.23500
C392        C  0.67832100  0.27441027  0.45045015     0.19400
F393        F  0.65520503  0.25930791  0.42985938    -0.13400
F394        F  0.69450560  0.22615986  0.49284992    -0.15800
F395        F  0.71007984  0.35309341  0.44930780    -0.15800
F396        F  0.74674856  0.32181567  0.02121090    -0.13400
C397        C  0.81778967  0.31755146  0.22617834     0.24600
C398        C  0.84450000  0.31702129  0.19951989    -0.23500
C399        C  0.84751345  0.30052896  0.14795504     0.19500
C400        C  0.82452732  0.28486188  0.12391027     0.24500
C401        C  0.79796670  0.28491430  0.15106178    -0.23500
C402        C  0.79480046  0.30181456  0.20207805     0.19400
F403        F  0.76915175  0.30372824  0.22809472    -0.13400
F404        F  0.81343810  0.33443936  0.27432541    -0.15800
F405        F  0.82874874  0.26915911  0.07459124    -0.15800
F406        F  0.87274742  0.29963740  0.12019485    -0.13400
C407        C  0.82543978  0.20082105  0.05128462     0.24600
C408        C  0.80035130  0.21169511  0.02510584    -0.23500
C409        C  0.79870059  0.21361780  0.46553330     0.19500
C410        C  0.82135724  0.20261284  0.43217526     0.24500
C411        C  0.84637265  0.19053320  0.45847424    -0.23500
C412        C  0.84848806  0.19109273  0.51867927     0.19400
F413        F  0.87234158  0.18125879  0.04659145    -0.13400
F414        F  0.82793410  0.20026612  0.10901897    -0.15800
F415        F  0.81845870  0.20303225  0.37456261    -0.15800
F416        F  0.77471359  0.22511546  0.43970009    -0.13400
C417        C  0.20304860  0.43594521  0.22006894     0.24600
C418        C  0.17471309  0.44534280  0.20914244    -0.23500
C419        C  0.16877329  0.46800279  0.16626307     0.19500
C420        C  0.19068019  0.48025188  0.13336224     0.24500
C421        C  0.21881599  0.46956399  0.14207578    -0.23500
C422        C  0.22496654  0.44776282  0.18628853     0.19400
F423        F  0.25209189  0.43762407  0.19619487    -0.13400
F424        F  0.20921195  0.41334291  0.26014251    -0.15800
F425        F  0.18413505  0.00122887  0.09081602    -0.15800
F426        F  0.14152650  0.47709738  0.15445488    -0.13400
C427        C  0.19263606  0.30105774  0.24819863     0.24600
C428        C  0.18339121  0.32956019  0.22254784    -0.23500
C429        C  0.19882516  0.34259421  0.17706622     0.19500
C430        C  0.22145758  0.32570668  0.15357752     0.24500
C431        C  0.22853348  0.29545348  0.17475293    -0.23500
C432        C  0.21513632  0.28392581  0.22410563     0.19400
F433        F  0.22156195  0.25440186  0.24448076    -0.13400
F434        F  0.17815623  0.28837393  0.29257388    -0.15800
F435        F  0.23396098  0.33697909  0.10560582    -0.15800
F436        F  0.19079678  0.37082045  0.15308245    -0.13400
C437        C  0.16652592  0.18896289  0.52749946     0.24600
C438        C  0.17017739  0.18136018  0.46965446    -0.23500
C439        C  0.19656747  0.18701610  0.44408376     0.19500
C440        C  0.21822468  0.20150621  0.47470862     0.24500
C441        C  0.21375426  0.21139219  0.03131096    -0.23500
C442        C  0.18850920  0.20223040  0.05839919     0.19400
F443        F  0.18484806  0.20602446  0.11531523    -0.13400
F444        F  0.14211341  0.18251876  0.05541619    -0.15800
F445        F  0.24401256  0.20374089  0.44963226    -0.15800
F446        F  0.20196251  0.17749536  0.39008629    -0.13400
C447        C  0.20703905  0.02707601  0.45681500     0.24600
C448        C  0.21940457  0.03992284  0.00661146    -0.23500
C449        C  0.20629021  0.06651273  0.03130767     0.19500
C450        C  0.18121792  0.07935569  0.50809495     0.24500
C451        C  0.16932004  0.06680167  0.45817594    -0.23500
C452        C  0.18262159  0.04094099  0.43224264     0.19400
F453        F  0.17163159  0.02872676  0.38370710    -0.13400
F454        F  0.21778766  0.50046220  0.43258762    -0.15800
F455        F  0.16932261  0.10527427  0.53278742    -0.15800
F456        F  0.21807479  0.08071828  0.07717764    -0.13400
O457        O  0.10043534  0.16366011  0.82679861    -0.73500
O458        O  0.14832044  0.09429180  0.87915464    -0.73500
O459        O  0.09788056  0.09855796  0.81986305    -0.73500
O460        O  0.15027556  0.15731826  0.88625996    -0.73600
O461        O  0.12700864  0.15373210  0.96827350    -0.73500
O462        O  0.07382896  0.09796575  0.90142471    -0.73500
O463        O  0.12396516  0.09170033  0.96037186    -0.73500
O464        O  0.07889285  0.16249258  0.91098477    -0.73500
Ni465      Ni  0.12492009  0.12847828  0.84967335     1.25400
Ni466      Ni  0.09981649  0.12629270  0.93765804     1.25400
C467        C  0.08202260  0.17493238  0.86142656     0.88700
C468        C  0.14548013  0.08390902  0.93032902     0.88700
C469        C  0.07730820  0.08832108  0.85032573     0.88700
C470        C  0.14794222  0.16376766  0.93936907     0.88900
N471        N  0.00603795  0.05658992  0.81527932    -0.35600
N472        N  0.04978279  0.00802699  0.80845275    -0.56200
N473        N  0.00534053  0.46226432  0.78860236    -0.35600
N474        N  0.96129410  0.01136823  0.79224319    -0.56200
C475        C  0.02979264  0.07415914  0.81056482     0.27900
C476        C  0.98361317  0.07580981  0.80190289     0.27900
C477        C  0.02887459  0.44527747  0.77397637     0.27900
C478        C  0.98248510  0.44681620  0.76781471     0.27900
C479        C  0.06585964  0.03187701  0.82832012     0.36600
C480        C  0.06571490  0.48113310  0.81278072     0.36600
C481        C  0.94499747  0.03660875  0.80730206     0.36600
C482        C  0.94451032  0.48556749  0.79398647     0.36600
C483        C  0.02247777  0.10446488  0.79204936    -0.20900
C484        C  0.99325604  0.10556208  0.78680599    -0.20900
C485        C  0.02065080  0.41889325  0.74359358    -0.20900
C486        C  0.99177778  0.41985826  0.73974856    -0.20900
C487        C  0.09233874  0.02021523  0.84495266    -0.22000
C488        C  0.09239078  0.48815183  0.83452494    -0.22000
C489        C  0.91745729  0.02692960  0.81753107    -0.22000
C490        C  0.91707433  0.49462662  0.80850672    -0.22000
C491        C  0.05741775  0.06422227  0.82775040    -0.17300
C492        C  0.95475878  0.06822983  0.81015764    -0.17300
C493        C  0.95351295  0.45464834  0.77817708    -0.17300
C494        C  0.05722900  0.45131715  0.79163651    -0.17300
H495        H  0.03675020  0.12386397  0.78408623     0.15600
H496        H  0.98043721  0.12607986  0.77453029     0.15600
H497        H  0.03344070  0.39959666  0.72749490     0.15600
H498        H  0.97954018  0.40148804  0.72014749     0.15600
H499        H  0.11003741  0.03352358  0.86130023     0.07500
H500        H  0.11031962  0.47220374  0.84132515     0.13900
H501        H  0.89947344  0.04163317  0.82949064     0.13900
H502        H  0.89869827  0.47964262  0.81200642     0.13900
H503        H  0.00481075  0.03444626  0.83504506     0.27100
H504        H  0.00464650  0.48090781  0.81715180     0.27100
N505        N  0.00971957  0.21150147  0.83412526    -0.35600
N506        N  0.05488994  0.25756655  0.82392387    -0.56200
N507        N  0.01113419  0.30617139  0.80274215    -0.35600
N508        N  0.96609393  0.26018765  0.81623757    -0.56200
C509        C  0.03243933  0.19345791  0.85086297     0.27900
C510        C  0.98611658  0.19483140  0.84681021     0.27900
C511        C  0.03427778  0.32404676  0.81250840     0.27900
C512        C  0.98799508  0.32543690  0.80774700     0.27900
C513        C  0.07139365  0.23099953  0.82685242     0.36600
C514        C  0.07194369  0.28193816  0.80981850     0.36600
C515        C  0.94911919  0.23457360  0.81541305     0.36600
C516        C  0.95018160  0.28532313  0.79798741     0.36600
C517        C  0.02290489  0.16493253  0.87291552    -0.20900
C518        C  0.99428199  0.16572397  0.87021632    -0.20900
C519        C  0.02569172  0.35478700  0.82469880    -0.20900
C520        C  0.99647569  0.35563159  0.82178221    -0.20900
C521        C  0.09937408  0.23867081  0.81557215    -0.22000
C522        C  0.09966324  0.27088067  0.80417305    -0.22000
C523        C  0.92202941  0.24362967  0.79747229    -0.22000
C524        C  0.92279341  0.27568482  0.78585999    -0.22000
C525        C  0.06160607  0.20064404  0.84388561    -0.17300
C526        C  0.95744276  0.20384953  0.83488092    -0.17300
C527        C  0.95962401  0.31706278  0.79586447    -0.17300
C528        C  0.06292705  0.31417085  0.80585283    -0.17300
H529        H  0.03470886  0.14415895  0.88690484     0.15600
H530        H  0.98169536  0.14554575  0.88166481     0.15600
H531        H  0.03915205  0.37463215  0.83423177     0.15600
H532        H  0.98295209  0.37615435  0.82893829     0.15600
H533        H  0.11771851  0.22289260  0.81606320     0.13900
H534        H  0.11822892  0.28468899  0.79434343     0.13900
H535        H  0.90352788  0.22892742  0.79342638     0.13900
H536        H  0.90503485  0.29028904  0.77136587     0.13900
H537        H  0.01037068  0.23234658  0.81055850     0.27100
H538        H  0.01130550  0.28356087  0.78567074     0.27100
O539        O  0.13851871  0.35240013  0.70125965    -0.73500
O540        O  0.08091739  0.41387831  0.73252760    -0.73500
O541        O  0.13418820  0.41492593  0.69487224    -0.73500
O542        O  0.08398643  0.34919991  0.73888522    -0.73600
O543        O  0.09943294  0.35155710  0.82883114    -0.73500
O544        O  0.15069408  0.41777981  0.78409525    -0.73500
O545        O  0.09583385  0.41667811  0.82254798    -0.73500
O546        O  0.15419874  0.35471377  0.79118628    -0.73500
Ni547      Ni  0.10862612  0.38234053  0.71403395     1.25400
Ni548      Ni  0.12537877  0.38527329  0.81021094     1.25400
C549        C  0.15708967  0.34554160  0.73974664     0.88700
C550        C  0.07917592  0.42609325  0.78205408     0.88700
C551        C  0.15165881  0.42587145  0.73124084     0.88700
C552        C  0.08354635  0.33920056  0.79060170     0.88900
C553        C  0.74193832  0.22043448  0.63759238     0.87500
C554        C  0.76044331  0.24505217  0.66702582    -0.52800
C555        C  0.77460706  0.26459237  0.63025615     0.10400
C556        C  0.76871609  0.25756183  0.56658208     0.21300
C557        C  0.72261476  0.23953166  0.59714409    -0.53500
C558        C  0.73627996  0.25808410  0.55884716     0.10500
C559        C  0.76335999  0.20300162  0.59889180    -0.53000
C560        C  0.77689624  0.22250733  0.56127154     0.11100
H561        H  0.76537497  0.24436316  0.71217318     0.15600
H562        H  0.77996737  0.27314172  0.53602285     0.01300
H563        H  0.69960656  0.23753523  0.59758754     0.15900
H564        H  0.76829937  0.17782285  0.60238935     0.15700
C565        C  0.77605416  0.02585222  0.51660087     0.87500
C566        C  0.79223260  0.00241913  0.55514588    -0.52800
C567        C  0.77549601  0.48352999  0.58716469     0.10400
C568        C  0.74362996  0.48900894  0.57735892     0.21300
C569        C  0.75589724  0.00558343  0.48095232    -0.53500
C570        C  0.73902675  0.48616547  0.51244530     0.10500
C571        C  0.75555610  0.04386476  0.55697909    -0.53000
C572        C  0.73874403  0.02426772  0.58882582     0.11100
H573        H  0.81531119  0.00127216  0.55791023     0.15600
H574        H  0.73008885  0.47369002  0.60424078     0.01300
H575        H  0.75405771  0.00719373  0.93488463     0.15900
H576        H  0.75371546  0.06950459  0.55884061     0.15700
O577        O  0.65154498  0.14168430  0.79639793    -0.73500
O578        O  0.59805354  0.07731694  0.83628743    -0.73500
O579        O  0.65077108  0.07892974  0.78461352    -0.73500
O580        O  0.59924849  0.14208772  0.84601140    -0.73600
O581        O  0.57843089  0.14637221  0.76048725    -0.73500
O582        O  0.62947259  0.08473713  0.69981962    -0.73500
O583        O  0.57847702  0.08209115  0.74998218    -0.73500
O584        O  0.63041067  0.14708069  0.71124060    -0.73500
Ni585      Ni  0.62545849  0.10969215  0.81925981     1.25400
Ni586      Ni  0.60326349  0.11531134  0.72776457     1.25400
C587        C  0.65089096  0.15294783  0.74557039     0.88700
C588        C  0.57935002  0.06906721  0.79953065     0.88700
C589        C  0.64956992  0.07325659  0.73090487     0.88700
C590        C  0.58072898  0.15508913  0.81231472     0.88900
O591        O  0.58562809  0.32950374  0.92300083    -0.73500
O592        O  0.63338203  0.39772461  0.95935864    -0.73500
O593        O  0.57959598  0.39440583  0.91998575    -0.73500
O594        O  0.63913759  0.33503972  0.96031909    -0.73600
O595        O  0.65412115  0.33503323  0.87016530    -0.73500
O596        O  0.59586649  0.39654077  0.83096583    -0.73500
O597        O  0.65017560  0.39860090  0.87053324    -0.73500
O598        O  0.59905186  0.33108662  0.83216045    -0.73500
Ni599      Ni  0.60867783  0.36410586  0.94352894     1.25400
Ni600      Ni  0.62519231  0.36529261  0.84741655     1.25400
C601        C  0.58399958  0.31903509  0.87226069     0.88700
C602        C  0.65084970  0.40791582  0.92239483     0.88700
C603        C  0.57876083  0.40636438  0.86941921     0.88700
C604        C  0.65689058  0.32627074  0.92232532     0.88900
O605        O  0.36509647  0.39546458  0.87905070    -0.73500
O606        O  0.41963527  0.33055528  0.84274381    -0.73500
O607        O  0.36771991  0.33265510  0.89379260    -0.73500
O608        O  0.41705781  0.39542850  0.82943084    -0.73600
O609        O  0.43904864  0.39833309  0.91378393    -0.73500
O610        O  0.38697225  0.34123673  0.97940951    -0.73500
O611        O  0.43776272  0.33419712  0.93028119    -0.73500
O612        O  0.38759646  0.40343196  0.96172036    -0.73500
Ni613      Ni  0.39179120  0.36322543  0.85781734     1.25400
Ni614      Ni  0.41378814  0.36944548  0.94903207     1.25400
C615        C  0.36707510  0.40940238  0.92698352     0.88700
C616        C  0.43732501  0.32111144  0.88129818     0.88700
C617        C  0.36805882  0.32874606  0.94812416     0.88700
C618        C  0.43581495  0.40767042  0.86212155     0.88900
C619        C  0.28215040  0.48407970  0.54133926     0.87500
C620        C  0.26420991  0.50731087  0.50530055    -0.52800
C621        C  0.24442216  0.02416086  0.53511582     0.10400
C622        C  0.24619422  0.01802710  0.60019860     0.21300
C623        C  0.29593214  0.50391448  0.58765540    -0.53500
C624        C  0.27747087  0.02188684  0.61785456     0.10500
C625        C  0.26049438  0.46419719  0.57552210    -0.53000
C626        C  0.24167160  0.48232156  0.60606727     0.11100
H627        H  0.26600818  0.50867747  0.95930666     0.15600
H628        H  0.23117932  0.03216547  0.62622030     0.01300
H629        H  0.31836737  0.00269374  0.59869223     0.15900
H630        H  0.26025096  0.43849222  0.57665729     0.15700
O631        O  0.43021163  0.08440479  0.75081441    -0.73500
O632        O  0.38392422  0.15702973  0.71778553    -0.73500
O633        O  0.43711364  0.14842705  0.76012584    -0.73500
O634        O  0.37688641  0.09510676  0.70994225    -0.73600
O635        O  0.36131654  0.09044136  0.79927266    -0.73500
O636        O  0.41846613  0.14900520  0.84724410    -0.73500
O637        O  0.36429661  0.15349812  0.80384138    -0.73500
O638        O  0.41586814  0.08389880  0.84109598    -0.73500
Ni639      Ni  0.40785214  0.12117610  0.73183623     1.25400
Ni640      Ni  0.38957872  0.11907940  0.82640422     1.25400
C641        C  0.43147410  0.07255212  0.80119865     0.88700
C642        C  0.36489372  0.16548822  0.75330290     0.88700
C643        C  0.43689890  0.15876862  0.81131477     0.88700
C644        C  0.35838524  0.08559124  0.74580546     0.88900
C645        C  0.23511440  0.23114440  0.56373692     0.87500
C646        C  0.22119942  0.25568111  0.60248929    -0.52800
C647        C  0.23977356  0.27242201  0.63413159     0.10400
C648        C  0.27110138  0.26458171  0.62234035     0.21300
C649        C  0.25474171  0.25150182  0.52697205    -0.53500
C650        C  0.27432116  0.26793585  0.55720869     0.10500
C651        C  0.25496699  0.21119889  0.60296114    -0.53000
C652        C  0.27385887  0.22884924  0.63323933     0.11100
H653        H  0.19843256  0.26016834  0.60449825     0.15600
H654        H  0.28624704  0.27845620  0.64807458     0.01300
H655        H  0.25312997  0.25387071  0.98108303     0.15900
H656        H  0.25474779  0.18547556  0.60498609     0.15700
N657        N  0.50620562  0.44191768  0.84566325    -0.35600
N658        N  0.54976887  0.48873444  0.83537391    -0.56200
N659        N  0.50522564  0.03708993  0.81880334    -0.35600
N660        N  0.46138630  0.48987002  0.82667994    -0.56200
C661        C  0.52963835  0.42308821  0.84152400     0.27900
C662        C  0.48356248  0.42370519  0.83414896     0.27900
C663        C  0.52849853  0.05310270  0.80131749     0.27900
C664        C  0.48193519  0.05404745  0.80114988     0.27900
C665        C  0.56611680  0.46405830  0.85448602     0.36600
C666        C  0.56611902  0.01484402  0.83611942     0.36600
C667        C  0.44508662  0.46471879  0.83975276     0.36600
C668        C  0.44435631  0.01601584  0.82839394     0.36600
C669        C  0.52185073  0.39286420  0.82610576    -0.20900
C670        C  0.49270205  0.39316997  0.82183416    -0.20900
C671        C  0.51956780  0.08064376  0.77301699    -0.20900
C672        C  0.49064341  0.08117457  0.77288162    -0.20900
C673        C  0.59308378  0.47448107  0.86755909    -0.22000
C674        C  0.59324232  0.00651732  0.85534358    -0.22000
C675        C  0.41732111  0.47483479  0.84876840    -0.22000
C676        C  0.41681076  0.00733340  0.84123078    -0.22000
C677        C  0.55759145  0.43195668  0.85530110    -0.17300
C678        C  0.45487835  0.43275435  0.84148622    -0.17300
C679        C  0.45309297  0.04692009  0.81285768    -0.17300
C680        C  0.55743272  0.04504507  0.81409668    -0.17300
H681        H  0.53576381  0.37264573  0.81917077     0.15600
H682        H  0.47961509  0.37306805  0.81187233     0.15600
H683        H  0.53193436  0.09980469  0.75599811     0.15600
H684        H  0.47797282  0.10048848  0.75531276     0.15600
H685        H  0.61095583  0.46030169  0.88279207     0.13900
H686        H  0.61150876  0.02155305  0.85942812     0.13900
H687        H  0.39921901  0.46025587  0.85836073     0.13900
H688        H  0.39821280  0.02264281  0.84384460     0.13900
H689        H  0.50537797  0.46434375  0.86351794     0.27100
H690        H  0.50520676  0.01777675  0.84664368     0.27100
N691        N  0.51045016  0.28583555  0.86065012    -0.35600
N692        N  0.46586461  0.23922576  0.84835796    -0.56200
N693        N  0.50959388  0.19128751  0.83284689    -0.35600
N694        N  0.55442578  0.23763699  0.84782854    -0.56200
C695        C  0.48760574  0.30235903  0.88015054     0.27900
C696        C  0.53396981  0.30185422  0.87630619     0.27900
C697        C  0.48628728  0.17316592  0.83933308     0.27900
C698        C  0.53262670  0.17226301  0.84225932     0.27900
C699        C  0.44936542  0.26577303  0.84945964     0.36600
C700        C  0.44908781  0.21527078  0.83137035     0.36600
C701        C  0.57095692  0.26355526  0.84369032     0.36600
C702        C  0.57050514  0.21242263  0.83199036     0.36600
C703        C  0.49694485  0.32915019  0.90800069    -0.20900
C704        C  0.52576942  0.32877663  0.90573080    -0.20900
C705        C  0.49454461  0.14257059  0.85437777    -0.20900
C706        C  0.52382414  0.14196775  0.85615925    -0.20900
C707        C  0.42169457  0.25842873  0.83424592    -0.22000
C708        C  0.42161019  0.22654763  0.82218936    -0.22000
C709        C  0.59798906  0.25466381  0.82627541    -0.22000
C710        C  0.59764486  0.22228407  0.81844289    -0.22000
C711        C  0.45862132  0.29564569  0.86903059    -0.17300
C712        C  0.56242474  0.29431614  0.86107261    -0.17300
C713        C  0.56116850  0.18060040  0.83206401    -0.17300
C714        C  0.45793856  0.18307281  0.82815463    -0.17300
H715        H  0.48489466  0.34837395  0.92633461     0.15600
H716        H  0.53858619  0.34759034  0.92221998     0.15600
H717        H  0.48083028  0.12273744  0.86284683     0.15600
H718        H  0.53719241  0.12143644  0.86557526     0.15600
H719        H  0.40327560  0.27406675  0.83290067     0.13900
H720        H  0.40323843  0.21308510  0.80976140     0.13900
H721        H  0.61615000  0.26976803  0.82057463     0.13900
H722        H  0.61544730  0.20764192  0.80524366     0.13900
H723        H  0.50992078  0.26709309  0.83236514     0.27100
H724        H  0.50984860  0.21391742  0.81484404     0.27100
O725        O  0.88978324  0.09882798  0.94008300    -0.73500
O726        O  0.93760426  0.16659084  0.89876404    -0.73500
O727        O  0.88906700  0.16076309  0.95377715    -0.73500
O728        O  0.93982280  0.10234293  0.88414106    -0.73600
O729        O  0.91571518  0.10635136  0.80215288    -0.73500
O730        O  0.86607957  0.16889986  0.87165575    -0.73500
O731        O  0.91672643  0.17132534  0.81365935    -0.73500
O732        O  0.86519184  0.10593564  0.85906634    -0.73500
Ni733      Ni  0.91510660  0.13186803  0.92157528     1.25400
Ni734      Ni  0.89022066  0.13841232  0.83319690     1.25400
C735        C  0.86807226  0.09348123  0.90885099     0.88700
C736        C  0.93563523  0.17993074  0.84966186     0.88700
C737        C  0.86847186  0.17334627  0.92561949     0.88700
C738        C  0.93573422  0.09366455  0.83268845     0.88900
O739        O  0.91672484  0.41816369  0.80669381    -0.73500
O740        O  0.86702915  0.34903890  0.77057115    -0.73500
O741        O  0.92072456  0.35290707  0.81459033    -0.73500
O742        O  0.86250392  0.41195732  0.76418805    -0.73600
O743        O  0.87899546  0.40810612  0.67553259    -0.73500
O744        O  0.93936350  0.35326045  0.72742621    -0.73500
O745        O  0.88643058  0.34620272  0.68444444    -0.73500
O746        O  0.93174534  0.41761455  0.71689592    -0.73500
Ni747      Ni  0.89135567  0.38317019  0.79257426     1.25400
Ni748      Ni  0.91000490  0.38137022  0.69831841     1.25400
C749        C  0.93235222  0.42943950  0.76680449     0.88700
C750        C  0.86750953  0.33769405  0.72000472     0.88700
C751        C  0.93905678  0.34262101  0.77880541     0.88700
C752        C  0.85981061  0.41703403  0.71050902     0.88900
C753        C  0.34746443  0.20895472  0.68894711     0.24600
C754        C  0.34180905  0.18660535  0.73214942    -0.23500
C755        C  0.31336609  0.17969966  0.74515970     0.19500
C756        C  0.29109809  0.19371344  0.71345427     0.24500
C757        C  0.29695940  0.21501640  0.66887422    -0.23500
C758        C  0.32525189  0.22308166  0.65773780     0.19400
F759        F  0.33159834  0.24312676  0.61417065    -0.13400
F760        F  0.37464172  0.21592743  0.67493974    -0.15800
F761        F  0.26385885  0.18601009  0.72543974    -0.15800
F762        F  0.30718055  0.15739623  0.78516899    -0.13400
C763        C  0.29438949  0.07296811  0.65272437     0.24600
C764        C  0.28855064  0.04117084  0.66457795    -0.23500
C765        C  0.30243723  0.02567932  0.71073141     0.19500
C766        C  0.32416634  0.04080196  0.74052509     0.24500
C767        C  0.33232567  0.07129172  0.72369975    -0.23500
C768        C  0.31636654  0.08786691  0.68171826     0.19400
F769        F  0.32327567  0.11788405  0.66632363    -0.13400
F770        F  0.28128098  0.08823697  0.60832149    -0.15800
F771        F  0.33903189  0.02460796  0.78155717    -0.15800
F772        F  0.29718445  0.99471818  0.72236062    -0.13400
C773        C  0.33451045  0.28393762  0.95512816     0.24600
C774        C  0.34500569  0.31222628  0.97652615    -0.23500
C775        C  0.33250655  0.32595783  0.02483327     0.19500
C776        C  0.30926579  0.31183258  0.55056131     0.24500
C777        C  0.29846276  0.28354354  0.52907392    -0.23500
C778        C  0.31163492  0.26945341  0.98167840     0.19400
F779        F  0.30315729  0.24095473  0.96200117    -0.13400
F780        F  0.34695007  0.26987073  0.90968307    -0.15800
F781        F  0.29689569  0.32652571  0.59539415    -0.15800
F782        F  0.34217484  0.35370961  0.04578551    -0.13400
C783        C  0.31632772  0.42059443  0.94708977     0.24600
C784        C  0.34447644  0.43100031  0.94500222    -0.23500
C785        C  0.35130368  0.46053712  0.96690084     0.19500
C786        C  0.33062715  0.47872041  0.99384868     0.24500
C787        C  0.30343995  0.46612557  0.50468852    -0.23500
C788        C  0.29583437  0.43814786  0.47632924     0.19400
F789        F  0.26869750  0.42773106  0.47671623    -0.13400
F790        F  0.30907388  0.39257253  0.92354160    -0.15800
F791        F  0.33739856  0.00875464  0.00822604    -0.15800
F792        F  0.37812729  0.47168741  0.96258700    -0.13400
C793        C  0.71120756  0.43644272  0.51207525     0.24600
C794        C  0.71709736  0.46587666  0.48670217    -0.23500
C795        C  0.70119066  0.47597360  0.93791076     0.19500
C796        C  0.68020604  0.45664956  0.91512577     0.24500
C797        C  0.67359186  0.42816018  0.94265089    -0.23500
C798        C  0.68892379  0.41844272  0.99151701     0.19400
F799        F  0.68259073  0.39107473  0.01939722    -0.13400
F800        F  0.72732024  0.42455288  0.55575664    -0.15800
F801        F  0.66550931  0.46645392  0.86799231    -0.15800
F802        F  0.70491331  0.00500875  0.91384230    -0.13400
C803        C  0.66645464  0.03673865  0.65506396     0.24600
C804        C  0.67278139  0.05607887  0.70175957    -0.23500
C805        C  0.70127108  0.06412060  0.71223870     0.19500
C806        C  0.72282763  0.05397321  0.67535224     0.24500
C807        C  0.71625745  0.03533930  0.62800885    -0.23500
C808        C  0.68803304  0.02610575  0.61904801     0.19400
F809        F  0.68111344  0.50791009  0.57381736    -0.13400
F810        F  0.63915194  0.02902107  0.64316247    -0.15800
F811        F  0.75008497  0.06242607  0.68565901    -0.15800
F812        F  0.70797498  0.08364293  0.75574159    -0.13400
C813        C  0.79944768  0.43263467  0.60840873     0.24600
C814        C  0.78856020  0.46140311  0.62848058    -0.23500
C815        C  0.79792915  0.47299035  0.68119335     0.19500
C816        C  0.82013558  0.45748982  0.71079722     0.24500
C817        C  0.83338201  0.43081910  0.68685231    -0.23500
C818        C  0.82173282  0.41738410  0.63743326     0.19400
F819        F  0.83284765  0.39018862  0.61579650    -0.13400
F820        F  0.79049930  0.42109534  0.55766873    -0.15800
F821        F  0.83023020  0.47002819  0.75981926    -0.15800
F822        F  0.78753813  0.50096904  0.70083992    -0.13400
C823        C  0.83515678  0.08452257  0.98840160     0.24600
C824        C  0.84456044  0.07603989  0.93401437    -0.23500
C825        C  0.83074092  0.05222547  0.90441400     0.19500
C826        C  0.80819994  0.03623897  0.92966558     0.24500
C827        C  0.79748331  0.04562604  0.98364800    -0.23500
C828        C  0.81209128  0.06957411  0.51308957     0.19400
F829        F  0.80532162  0.07724052  0.56741500    -0.13400
F830        F  0.84830668  0.10767713  0.01794133    -0.15800
F831        F  0.79898058  0.01005196  0.90273098    -0.15800
F832        F  0.84018554  0.04309432  0.85246379    -0.13400
C833        C  0.68953822  0.19313380  0.75262124     0.24600
C834        C  0.67578726  0.16914509  0.72296927    -0.23500
C835        C  0.68673500  0.15887066  0.67093823     0.19500
C836        C  0.71000416  0.17351648  0.64681801     0.24500
C837        C  0.72333077  0.19908081  0.67414885    -0.23500
C838        C  0.71274370  0.20852003  0.72809377     0.19400
F839        F  0.72299197  0.23397985  0.75573761    -0.13400
F840        F  0.67941795  0.20304084  0.80358262    -0.15800
F841        F  0.71780433  0.16418673  0.59392464    -0.15800
F842        F  0.67454169  0.13462309  0.64259637    -0.13400
C843        C  0.69808078  0.25784566  0.98391311     0.24600
C844        C  0.72044259  0.27381365  0.51135617    -0.23500
C845        C  0.72513672  0.30567823  0.49711653     0.19500
C846        C  0.70591267  0.32209858  0.96084008     0.24500
C847        C  0.68142914  0.30701902  0.94082595    -0.23500
C848        C  0.67831006  0.27451370  0.95015895     0.19400
F849        F  0.65518119  0.25941180  0.92962671    -0.13400
F850        F  0.69446989  0.22628707  0.99267214    -0.15800
F851        F  0.71011371  0.35317279  0.94878602    -0.15800
F852        F  0.74673084  0.32170127  0.52163810    -0.13400
C853        C  0.81783976  0.31738314  0.72646357     0.24600
C854        C  0.84452404  0.31696395  0.69970023    -0.23500
C855        C  0.84752477  0.30053447  0.64806392     0.19500
C856        C  0.82455167  0.28483003  0.62404547     0.24500
C857        C  0.79801366  0.28478454  0.65128575    -0.23500
C858        C  0.79486153  0.30161545  0.70238239     0.19400
F859        F  0.76923375  0.30343664  0.72849792    -0.13400
F860        F  0.81349947  0.33418967  0.77470651    -0.15800
F861        F  0.82876627  0.26919006  0.57465851    -0.15800
F862        F  0.87273312  0.29974109  0.62020402    -0.13400
C863        C  0.82554778  0.20082307  0.55140834     0.24600
C864        C  0.80045128  0.21167307  0.52522823    -0.23500
C865        C  0.79858126  0.21357143  0.96540668     0.19500
C866        C  0.82122671  0.20252593  0.93205230     0.24500
C867        C  0.84625712  0.19048096  0.95835141    -0.23500
C868        C  0.84836920  0.19105038  0.01855869     0.19400
F869        F  0.87247161  0.18132472  0.54670005    -0.13400
F870        F  0.82803668  0.20024884  0.60914329    -0.15800
F871        F  0.81830148  0.20287256  0.87444505    -0.15800
F872        F  0.77458566  0.22504337  0.93956925    -0.13400
C873        C  0.20310422  0.43580305  0.71989537     0.24600
C874        C  0.17477542  0.44529470  0.70914414    -0.23500
C875        C  0.16883612  0.46802902  0.66639812     0.19500
C876        C  0.19072978  0.48025646  0.63343741     0.24500
C877        C  0.21885538  0.46948756  0.64197778    -0.23500
C878        C  0.22501108  0.44761559  0.68607654     0.19400
F879        F  0.25212992  0.43741197  0.69584531    -0.13400
F880        F  0.20926450  0.41312628  0.75983502    -0.15800
F881        F  0.18417631  0.00129630  0.59100158    -0.15800
F882        F  0.14159551  0.47722127  0.65477687    -0.13400
C883        C  0.19275336  0.30116835  0.74808211     0.24600
C884        C  0.18340593  0.32960465  0.72233255    -0.23500
C885        C  0.19875203  0.34261474  0.67670325     0.19500
C886        C  0.22139385  0.32575749  0.65318464     0.24500
C887        C  0.22858437  0.29556667  0.67450760    -0.23500
C888        C  0.21527653  0.28407561  0.72398439     0.19400
F889        F  0.22179871  0.25459971  0.74447246    -0.13400
F890        F  0.17834856  0.28849581  0.79256793    -0.15800
F891        F  0.23379089  0.33697779  0.60505815    -0.15800
F892        F  0.19063076  0.37078350  0.65261761    -0.13400
C893        C  0.16666289  0.18871107  0.02756619     0.24600
C894        C  0.17025272  0.18126024  0.96963266    -0.23500
C895        C  0.19659923  0.18705669  0.94398282     0.19500
C896        C  0.21824296  0.20159073  0.97459233     0.24500
C897        C  0.21370609  0.21141162  0.53135247    -0.23500
C898        C  0.18838902  0.20242132  0.55836824     0.19400
F899        F  0.18467512  0.20631470  0.61524701    -0.13400
F900        F  0.14189592  0.18298265  0.55521991    -0.15800
F901        F  0.24399358  0.20397229  0.94941245    -0.15800
F902        F  0.20196582  0.17764047  0.88991322    -0.13400
C903        C  0.20700347  0.02702118  0.95688456     0.24600
C904        C  0.21942405  0.03991963  0.50660807    -0.23500
C905        C  0.20627674  0.06645451  0.53142987     0.19500
C906        C  0.18125513  0.07942615  0.00789358     0.24500
C907        C  0.16933872  0.06681214  0.95804285    -0.23500
C908        C  0.18260603  0.04089023  0.93223569     0.19400
F909        F  0.17159903  0.02861691  0.88376588    -0.13400
F910        F  0.21771014  0.50033912  0.93281125    -0.15800
F911        F  0.16939501  0.10540520  0.03244919    -0.15800
F912        F  0.21805497  0.08062630  0.57734139    -0.13400
O913        O  0.10042683  0.66365051  0.32685968    -0.73500
O914        O  0.14832265  0.59431879  0.37931337    -0.73500
O915        O  0.09790190  0.59854378  0.31996412    -0.73500
O916        O  0.15023565  0.65735464  0.38635175    -0.73600
O917        O  0.12697804  0.65375555  0.46837867    -0.73500
O918        O  0.07382588  0.59796573  0.40149669    -0.73500
O919        O  0.12394973  0.59171676  0.46050781    -0.73500
O920        O  0.07888799  0.66250180  0.41105099    -0.73500
Ni921      Ni  0.12491568  0.62848533  0.34978024     1.25400
Ni922      Ni  0.09980129  0.62630313  0.43775411     1.25400
C923        C  0.08202253  0.67493613  0.36148926     0.88700
C924        C  0.14547111  0.58392834  0.43048061     0.88700
C925        C  0.07732123  0.58831149  0.35040570     0.88700
C926        C  0.14788990  0.66382307  0.43944726     0.88900
N927        N  0.00605400  0.55659140  0.31529056    -0.35600
N928        N  0.04978809  0.50803682  0.30841078    -0.56200
N929        N  0.00533414  0.96228696  0.28841705    -0.35600
N930        N  0.96129991  0.51138515  0.29211081    -0.56200
C931        C  0.02980942  0.57416295  0.31061490     0.27900
C932        C  0.98363263  0.57581704  0.30192518     0.27900
C933        C  0.02886901  0.94529605  0.27382013     0.27900
C934        C  0.98248341  0.94684193  0.26759912     0.27900
C935        C  0.06587276  0.53187502  0.32830180     0.36600
C936        C  0.06571541  0.98113601  0.31268027     0.36600
C937        C  0.94500516  0.53662219  0.30719139     0.36600
C938        C  0.94450689  0.98559095  0.29375306     0.36600
C939        C  0.02249889  0.60447482  0.29212962    -0.20900
C940        C  0.99327825  0.60557508  0.28687375    -0.20900
C941        C  0.02065010  0.91891345  0.24342530    -0.20900
C942        C  0.99178068  0.91988386  0.23954141    -0.20900
C943        C  0.09235231  0.52020275  0.34490232    -0.22000
C944        C  0.09239732  0.98814053  0.33441705    -0.22000
C945        C  0.91745480  0.52695009  0.31733302    -0.22000
C946        C  0.91706636  0.99465414  0.30823012    -0.22000
C947        C  0.05743184  0.56421946  0.32779862    -0.17300
C948        C  0.95477689  0.56823519  0.31014728    -0.17300
C949        C  0.95350994  0.95467359  0.27793136    -0.17300
C950        C  0.05721795  0.95132649  0.29152080    -0.17300
H951        H  0.03677384  0.62387432  0.28418928     0.15600
H952        H  0.98046155  0.62609717  0.27461332     0.15600
H953        H  0.03343726  0.89961094  0.22734285     0.15600
H954        H  0.97955016  0.90151355  0.21992388     0.15600
H955        H  0.11005567  0.53350107  0.36125719     0.07500
H956        H  0.11032480  0.97218733  0.34118871     0.13900
H957        H  0.89946970  0.54165430  0.32928306     0.13900
H958        H  0.89868220  0.97967747  0.31165766     0.13900
H959        H  0.00482073  0.53443975  0.33502483     0.27100
H960        H  0.00463709  0.98092696  0.31697263     0.27100
N961        N  0.00972719  0.71151189  0.33421950    -0.35600
N962        N  0.05488672  0.75756926  0.32397667    -0.56200
N963        N  0.01111826  0.80617467  0.30274583    -0.35600
N964        N  0.96608702  0.76019860  0.31630518    -0.56200
C965        C  0.03244820  0.69346330  0.35092721     0.27900
C966        C  0.98612896  0.69483932  0.34691263     0.27900
C967        C  0.03426067  0.82405647  0.31248448     0.27900
C968        C  0.98797862  0.82544816  0.30767183     0.27900
C969        C  0.07139765  0.73100816  0.32693146     0.36600
C970        C  0.07193792  0.78194611  0.30989777     0.36600
C971        C  0.94911664  0.73457965  0.31554400     0.36600
C972        C  0.95016354  0.78532537  0.29804565     0.36600
C973        C  0.02291884  0.66493414  0.37296966    -0.20900
C974        C  0.99429905  0.66572638  0.37029351    -0.20900
C975        C  0.02567216  0.85481034  0.32456773    -0.20900
C976        C  0.99645791  0.85565615  0.32161607    -0.20900
C977        C  0.09938010  0.73868804  0.31569619    -0.22000
C978        C  0.09966334  0.77089801  0.30429893    -0.22000
C979        C  0.92201727  0.74362588  0.29764459    -0.22000
C980        C  0.92277117  0.77567749  0.28598620    -0.22000
C981        C  0.06161170  0.70064985  0.34394525    -0.17300
C982        C  0.95745480  0.70385675  0.33500609    -0.17300
C983        C  0.95960579  0.81706550  0.29582546    -0.17300
C984        C  0.06291396  0.81417514  0.30589838    -0.17300
H985        H  0.03472263  0.64415561  0.38693424     0.15600
H986        H  0.98171990  0.64554110  0.38173335     0.15600
H987        H  0.03913015  0.87466372  0.33405753     0.15600
H988        H  0.98293415  0.87618695  0.32870187     0.15600
H989        H  0.11772851  0.72291531  0.31621719     0.13900
H990        H  0.11822784  0.78471319  0.29449638     0.13900
H991        H  0.90351624  0.72891855  0.29364979     0.13900
H992        H  0.90500485  0.79027297  0.27149924     0.13900
H993        H  0.01037099  0.73236092  0.31066631     0.27100
H994        H  0.01129325  0.78354837  0.28574513     0.27100
O995        O  0.13852829  0.85237871  0.20135238    -0.73500
O996        O  0.08090245  0.91385028  0.23248466    -0.73500
O997        O  0.13416574  0.91490568  0.19486284    -0.73500
O998        O  0.08398891  0.84917473  0.23891848    -0.73600
O999        O  0.09940426  0.85157761  0.32888133    -0.73500
O1000       O  0.15065114  0.91780393  0.28409429    -0.73500
O1001       O  0.09579701  0.91669009  0.32251407    -0.73500
O1002       O  0.15417437  0.85473234  0.29129930    -0.73500
Ni1003     Ni  0.10862071  0.88231404  0.21405103     1.25400
Ni1004     Ni  0.12534620  0.88529328  0.31024205     1.25400
C1005       C  0.15707977  0.84552971  0.23988345     0.88700
C1006       C  0.07915292  0.92608910  0.28199083     0.88700
C1007       C  0.15161491  0.92588653  0.23123359     0.88700
C1008       C  0.08353450  0.83919961  0.29064688     0.88900
C1009       C  0.74183983  0.72062786  0.13744797     0.87500
C1010       C  0.76035261  0.74524794  0.16685472    -0.52800
C1011       C  0.77454814  0.76474100  0.13005257     0.10400
C1012       C  0.76867508  0.75767484  0.06638551     0.21300
C1013       C  0.72254683  0.73973317  0.09694612    -0.53500
C1014       C  0.73624149  0.75823836  0.05861737     0.10500
C1015       C  0.76325361  0.70314569  0.09880361    -0.53000
C1016       C  0.77681905  0.72260441  0.06115369     0.11100
H1017       H  0.76527836  0.74460159  0.21199968     0.15600
H1018       H  0.77995414  0.77322050  0.03581131     0.01300
H1019       H  0.69953555  0.73777163  0.09737229     0.15900
H1020       H  0.76813541  0.67795384  0.10231915     0.15700
C1021       C  0.77604518  0.52579834  0.01642926     0.87500
C1022       C  0.79220842  0.50236041  0.05498360    -0.52800
C1023       C  0.77546173  0.98346618  0.08694710     0.10400
C1024       C  0.74359905  0.98894555  0.07710186     0.21300
C1025       C  0.75590387  0.50553946  0.98073637    -0.53500
C1026       C  0.73902312  0.98612511  0.01217953     0.10500
C1027       C  0.75553304  0.54380360  0.05678624    -0.53000
C1028       C  0.73870519  0.52420094  0.08859211     0.11100
H1029       H  0.81528630  0.50121143  0.05778000     0.15600
H1030       H  0.73005024  0.97361182  0.10394154     0.01300
H1031       H  0.75404736  0.50720850  0.43510780     0.15900
H1032       H  0.75370554  0.56944360  0.05867884     0.15700
O1033       O  0.65156145  0.64167452  0.29625689    -0.73500
O1034       O  0.59809443  0.57727810  0.33615292    -0.73500
O1035       O  0.65079085  0.57891814  0.28442340    -0.73500
O1036       O  0.59928131  0.64205720  0.34592090    -0.73600
O1037       O  0.57842168  0.64633053  0.26043625    -0.73500
O1038       O  0.62948454  0.58475840  0.19964147    -0.73500
O1039       O  0.57850995  0.58204719  0.24985212    -0.73500
O1040       O  0.63037585  0.64710685  0.21115931    -0.73500
Ni1041     Ni  0.62548693  0.60966829  0.31912140     1.25400
Ni1042     Ni  0.60326348  0.61530112  0.22765594     1.25400
C1043       C  0.65087083  0.65297332  0.24545453     0.88700
C1044       C  0.57939649  0.56901558  0.29939367     0.88700
C1045       C  0.64958037  0.57326108  0.23070982     0.88700
C1046       C  0.58074736  0.65505659  0.31225270     0.88900
O1047       O  0.58565802  0.82944230  0.42307792    -0.73500
O1048       O  0.63339432  0.89766022  0.45960191    -0.73500
O1049       O  0.57962458  0.89434292  0.42005185    -0.73500
O1050       O  0.63913346  0.83496768  0.46057330    -0.73600
O1051       O  0.65417411  0.83495124  0.37045915    -0.73500
O1052       O  0.59596538  0.89648862  0.33108711    -0.73500
O1053       O  0.65025089  0.89852841  0.37082715    -0.73500
O1054       O  0.59913314  0.83103665  0.33227200    -0.73500
Ni1055     Ni  0.60869271  0.86404194  0.44368726     1.25400
Ni1056     Ni  0.62527383  0.86522868  0.34762509     1.25400
C1057       C  0.58405176  0.81898570  0.37232655     0.88700
C1058       C  0.65088793  0.90785288  0.42268609     0.88700
C1059       C  0.57882215  0.90630264  0.36948324     0.88700
C1060       C  0.65690473  0.82618433  0.42262545     0.88900
O1061       O  0.36511656  0.89537813  0.37905615    -0.73500
O1062       O  0.41969303  0.83051483  0.34277237    -0.73500
O1063       O  0.36777115  0.83256596  0.39378173    -0.73500
O1064       O  0.41709394  0.89538819  0.32949982    -0.73600
O1065       O  0.43905814  0.89829431  0.41387952    -0.73500
O1066       O  0.38701206  0.84113646  0.47941374    -0.73500
O1067       O  0.43780813  0.83415262  0.43032008    -0.73500
O1068       O  0.38758918  0.90333508  0.46175892    -0.73500
Ni1069     Ni  0.39183294  0.86316158  0.35784038     1.25400
Ni1070     Ni  0.41380855  0.86937630  0.44907787     1.25400
C1071       C  0.36707931  0.90931007  0.42699484     0.88700
C1072       C  0.43737916  0.82107302  0.38133185     0.88700
C1073       C  0.36811093  0.82863913  0.44811017     0.88700
C1074       C  0.43583800  0.90763601  0.36221698     0.88900
C1075       C  0.28211529  0.98408955  0.04143352     0.87500
C1076       C  0.26417953  0.00730886  0.00536679    -0.52800
C1077       C  0.24439523  0.52418128  0.03515339     0.10400
C1078       C  0.24617123  0.51808848  0.10024831     0.21300
C1079       C  0.29590825  0.00394259  0.08769993    -0.53500
C1080       C  0.27745456  0.52194710  0.11788198     0.10500
C1081       C  0.26045793  0.96423317  0.07566428    -0.53000
C1082       C  0.24164089  0.98238008  0.10617719     0.11100
H1083       H  0.26605349  0.00871055  0.45924981     0.15600
H1084       H  0.23115659  0.53224705  0.12623908     0.01300
H1085       H  0.31834887  0.50273861  0.09868839     0.15900
H1086       H  0.26020946  0.93852965  0.07687238     0.15700
O1087       O  0.43027581  0.58437842  0.25071433    -0.73500
O1088       O  0.38398923  0.65700930  0.21761718    -0.73500
O1089       O  0.43717480  0.64841250  0.25999126    -0.73500
O1090       O  0.37695042  0.59508313  0.20981425    -0.73600
O1091       O  0.36138132  0.59043880  0.29915030    -0.73500
O1092       O  0.41852219  0.64899764  0.34710548    -0.73500
O1093       O  0.36436229  0.65349373  0.30367565    -0.73500
O1094       O  0.41592215  0.58388649  0.34098898    -0.73500
Ni1095     Ni  0.40791738  0.62115387  0.23170213     1.25400
Ni1096     Ni  0.38963932  0.61907364  0.32626834     1.25400
C1097       C  0.43152769  0.57252572  0.30110291     0.88700
C1098       C  0.36496006  0.66547765  0.25313138     0.88700
C1099       C  0.43695340  0.65876079  0.31117673     0.88700
C1100       C  0.35844954  0.58558016  0.24568893     0.88900
C1101       C  0.23512904  0.73115806  0.06373600     0.87500
C1102       C  0.22118177  0.75559296  0.10265175    -0.52800
C1103       C  0.23973945  0.77234941  0.13431804     0.10400
C1104       C  0.27107892  0.76461997  0.12239929     0.21300
C1105       C  0.25468030  0.75163123  0.02701659    -0.53500
C1106       C  0.27425168  0.76806843  0.05727114     0.10500
C1107       C  0.25505355  0.71121832  0.10282267    -0.53000
C1108       C  0.27391936  0.72888132  0.13314256     0.11100
H1109       H  0.19840556  0.76000117  0.10474326     0.15600
H1110       H  0.28621037  0.77850321  0.14815156     0.01300
H1111       H  0.25321742  0.75369693  0.48103530     0.15900
H1112       H  0.25488459  0.68549212  0.10476184     0.15700
N1113       N  0.50625571  0.94186283  0.34576274    -0.35600
N1114       N  0.54983018  0.98866377  0.33526871    -0.56200
N1115       N  0.50527891  0.53703251  0.31870086    -0.35600
N1116       N  0.46143035  0.98982983  0.32672168    -0.56200
C1117       C  0.52968395  0.92302179  0.34163301     0.27900
C1118       C  0.48360297  0.92365087  0.33430904     0.27900
C1119       C  0.52855169  0.55305689  0.30125037     0.27900
C1120       C  0.48198798  0.55401352  0.30111490     0.27900
C1121       C  0.56619000  0.96398886  0.35435125     0.36600
C1122       C  0.56619198  0.51476891  0.33591421     0.36600
C1123       C  0.44512499  0.96468239  0.33979685     0.36600
C1124       C  0.44439739  0.51597892  0.32832876     0.36600
C1125       C  0.52188295  0.89279091  0.32629025    -0.20900
C1126       C  0.49273315  0.89310424  0.32204983    -0.20900
C1127       C  0.51962075  0.58063028  0.27305396    -0.20900
C1128       C  0.49069808  0.58116708  0.27293480    -0.20900
C1129       C  0.59317460  0.97440571  0.36728636    -0.22000
C1130       C  0.59333422  0.50643695  0.35502000    -0.22000
C1131       C  0.41735162  0.97480252  0.34871722    -0.22000
C1132       C  0.41684403  0.50729944  0.34110510    -0.22000
C1133       C  0.55765150  0.93189144  0.35530585    -0.17300
C1134       C  0.45491635  0.93271579  0.34160451    -0.17300
C1135       C  0.45314134  0.54688330  0.31278560    -0.17300
C1136       C  0.55749006  0.54498068  0.31395580    -0.17300
H1137       H  0.53578999  0.87256724  0.31935717     0.15600
H1138       H  0.47963972  0.87300230  0.31212242     0.15600
H1139       H  0.53198761  0.59980740  0.25609606     0.15600
H1140       H  0.47802875  0.60050235  0.25543965     0.15600
H1141       H  0.61105497  0.96022533  0.38247299     0.13900
H1142       H  0.61160895  0.52146882  0.35900706     0.13900
H1143       H  0.39924372  0.96022881  0.35829541     0.13900
H1144       H  0.39824252  0.52260884  0.34363665     0.13900
H1145       H  0.50543950  0.96430482  0.36355375     0.27100
H1146       H  0.50526485  0.51768951  0.34646936     0.27100
N1147       N  0.51049766  0.78580384  0.36065951    -0.35600
N1148       N  0.46591286  0.73920480  0.34829953    -0.56200
N1149       N  0.50963509  0.69127474  0.33277382    -0.35600
N1150       N  0.55446561  0.73761175  0.34778155    -0.56200
C1151       C  0.48765569  0.80230741  0.38022042     0.27900
C1152       C  0.53401873  0.80180683  0.37635753     0.27900
C1153       C  0.48632683  0.67315913  0.33926636     0.27900
C1154       C  0.53266227  0.67225148  0.34224173     0.27900
C1155       C  0.44941786  0.76575337  0.34941615     0.36600
C1156       C  0.44913921  0.71526245  0.33124602     0.36600
C1157       C  0.57098921  0.76353374  0.34360038     0.36600
C1158       C  0.57053405  0.71240148  0.33188267     0.36600
C1159       C  0.49699655  0.82906879  0.40815871    -0.20900
C1160       C  0.52582026  0.82869970  0.40587279    -0.20900
C1161       C  0.49457533  0.64257120  0.35437763    -0.20900
C1162       C  0.52385415  0.64196507  0.35618997    -0.20900
C1163       C  0.42175138  0.75842225  0.33414277    -0.22000
C1164       C  0.42166715  0.72654767  0.32203323    -0.22000
C1165       C  0.59800539  0.75465019  0.32607695    -0.22000
C1166       C  0.59765861  0.72227016  0.31823289    -0.22000
C1167       C  0.45867330  0.79560980  0.36906062    -0.17300
C1168       C  0.56247018  0.79428195  0.36107572    -0.17300
C1169       C  0.56120176  0.68057719  0.33201686    -0.17300
C1170       C  0.45798685  0.68306546  0.32802653    -0.17300
H1171       H  0.48494963  0.84827342  0.42656241     0.15600
H1172       H  0.53863332  0.84750268  0.42241079     0.15600
H1173       H  0.48085591  0.62274470  0.36286445     0.15600
H1174       H  0.53721849  0.62143585  0.36564536     0.15600
H1175       H  0.40333395  0.77406224  0.33279581     0.13900
H1176       H  0.40329838  0.71309347  0.30955737     0.13900
H1177       H  0.61615933  0.76975818  0.32032029     0.13900
H1178       H  0.61545111  0.70763244  0.30496719     0.13900
H1179       H  0.50996524  0.76709110  0.33230932     0.27100
H1180       H  0.50989540  0.71389424  0.31472464     0.27100
O1181       O  0.88981727  0.59880131  0.44015902    -0.73500
O1182       O  0.93764095  0.66656791  0.39886086    -0.73500
O1183       O  0.88913111  0.66073713  0.45389871    -0.73500
O1184       O  0.93985380  0.60231932  0.38418270    -0.73600
O1185       O  0.91573034  0.60635079  0.30221525    -0.73500
O1186       O  0.86614158  0.66891028  0.37178802    -0.73500
O1187       O  0.91675896  0.67131796  0.31376221    -0.73500
O1188       O  0.86521546  0.60594219  0.35916279    -0.73500
Ni1189     Ni  0.91514927  0.63183928  0.42165972     1.25400
Ni1190     Ni  0.89025282  0.63841269  0.33329784     1.25400
C1191       C  0.86809764  0.59347428  0.40893592     0.88700
C1192       C  0.93566188  0.67992344  0.34977254     0.88700
C1193       C  0.86855353  0.67335858  0.42574669     0.88700
C1194       C  0.93575541  0.59365716  0.33272356     0.88900
O1195       O  0.91672082  0.91819469  0.30645806    -0.73500
O1196       O  0.86702043  0.84907453  0.27038461    -0.73500
O1197       O  0.92070330  0.85293205  0.31445421    -0.73500
O1198       O  0.86251687  0.91198435  0.26389089    -0.73600
O1199       O  0.87902810  0.90808418  0.17525854    -0.73500
O1200       O  0.93936833  0.85324247  0.22731382    -0.73500
O1201       O  0.88644485  0.84618497  0.18428290    -0.73500
O1202       O  0.93176310  0.91760404  0.21667773    -0.73500
Ni1203     Ni  0.89135066  0.88320144  0.29235947     1.25400
Ni1204     Ni  0.91002480  0.88135107  0.19812774     1.25400
C1205       C  0.93235491  0.92945569  0.26656757     0.88700
C1206       C  0.86750641  0.83771201  0.21983381     0.88700
C1207       C  0.93904131  0.84261938  0.27870384     0.88700
C1208       C  0.85983564  0.91703270  0.21020120     0.88900
C1209       C  0.34753270  0.70897559  0.18881407     0.24600
C1210       C  0.34187749  0.68660329  0.23198158    -0.23500
C1211       C  0.31343397  0.67970315  0.24499712     0.19500
C1212       C  0.29116610  0.69374087  0.21332766     0.24500
C1213       C  0.29702610  0.71505873  0.16877162    -0.23500
C1214       C  0.32531690  0.72313313  0.15764683     0.19400
F1215       F  0.33165483  0.74322086  0.11413640    -0.13400
F1216       F  0.37471030  0.71594758  0.17481023    -0.15800
F1217       F  0.26392552  0.68604761  0.22532430    -0.15800
F1218       F  0.30724602  0.65737902  0.28496736    -0.13400
C1219       C  0.29434669  0.57301935  0.15287345     0.24600
C1220       C  0.28855011  0.54120056  0.16463265    -0.23500
C1221       C  0.30251106  0.52566749  0.21065559     0.19500
C1222       C  0.32427668  0.54076726  0.24036909     0.24500
C1223       C  0.33238537  0.57128471  0.22362347    -0.23500
C1224       C  0.31635600  0.58790106  0.18180194     0.19400
F1225       F  0.32322517  0.61794268  0.16649039    -0.13400
F1226       F  0.28116334  0.58833227  0.10860716    -0.15800
F1227       F  0.33922587  0.52452926  0.28122531    -0.15800
F1228       F  0.29730339  0.49468569  0.22219012    -0.13400
C1229       C  0.33460589  0.78378787  0.45514073     0.24600
C1230       C  0.34506625  0.81210278  0.47649990    -0.23500
C1231       C  0.33254060  0.82584816  0.52476555     0.19500
C1232       C  0.30923235  0.81194674  0.05066351     0.24500
C1233       C  0.29839328  0.78368377  0.02913291    -0.23500
C1234       C  0.31173123  0.76929586  0.48168517     0.19400
F1235       F  0.30327784  0.74077748  0.46205538    -0.13400
F1236       F  0.34707884  0.76970619  0.40974680    -0.15800
F1237       F  0.29690571  0.82661189  0.09557241    -0.15800
F1238       F  0.34218566  0.85361454  0.54569926    -0.13400
C1239       C  0.31631302  0.92063158  0.44681766     0.24600
C1240       C  0.34449651  0.93094205  0.44496022    -0.23500
C1241       C  0.35136937  0.96042729  0.46701581     0.19500
C1242       C  0.33070484  0.97864117  0.49392490     0.24500
C1243       C  0.30340643  0.96612677  0.00480208    -0.23500
C1244       C  0.29584276  0.93807702  0.97662872     0.19400
F1245       F  0.26873857  0.92756480  0.97719659    -0.13400
F1246       F  0.30901592  0.89267071  0.42309221    -0.15800
F1247       F  0.33753375  0.50864604  0.50841099    -0.15800
F1248       F  0.37822919  0.97149621  0.46289187    -0.13400
C1249       C  0.71122890  0.93640186  0.01168206     0.24600
C1250       C  0.71710345  0.96585648  0.98638516    -0.23500
C1251       C  0.70119582  0.97595599  0.43816900     0.19500
C1252       C  0.68022726  0.95660368  0.41539668     0.24500
C1253       C  0.67360508  0.92813193  0.44297745    -0.23500
C1254       C  0.68891592  0.91846314  0.49189973     0.19400
F1255       F  0.68258482  0.89110876  0.51982493    -0.13400
F1256       F  0.72735909  0.92447718  0.05530897    -0.15800
F1257       F  0.66556098  0.96635950  0.36819547    -0.15800
F1258       F  0.70492298  0.50496243  0.41403209    -0.13400
C1259       C  0.66643921  0.53665554  0.15497486     0.24600
C1260       C  0.67277978  0.55607600  0.20155229    -0.23500
C1261       C  0.70126537  0.56417030  0.21191161     0.19500
C1262       C  0.72280718  0.55398924  0.17502714     0.24500
C1263       C  0.71622764  0.53527195  0.12779855    -0.23500
C1264       C  0.68800645  0.52598479  0.11896195     0.19400
F1265       F  0.68108046  0.00768619  0.07387295    -0.13400
F1266       F  0.63913517  0.52889236  0.14318939    -0.15800
F1267       F  0.75006171  0.56248949  0.18522605    -0.15800
F1268       F  0.70797554  0.58377557  0.25528794    -0.13400
C1269       C  0.79945986  0.93259722  0.10809087     0.24600
C1270       C  0.78851997  0.96132428  0.12823748    -0.23500
C1271       C  0.79787407  0.97289634  0.18097061     0.19500
C1272       C  0.82011244  0.95742680  0.21052560     0.24500
C1273       C  0.83340946  0.93080650  0.18650969    -0.23500
C1274       C  0.82178679  0.91738654  0.13704993     0.19400
F1275       F  0.83296003  0.89024541  0.11531492    -0.13400
F1276       F  0.79052279  0.92107349  0.05733056    -0.15800
F1277       F  0.83018636  0.96995309  0.25957503    -0.15800
F1278       F  0.78743978  0.00084195  0.20067894    -0.13400
C1279       C  0.83514624  0.58458704  0.48844757     0.24600
C1280       C  0.84457375  0.57605236  0.43410586    -0.23500
C1281       C  0.83076209  0.55221353  0.40455266     0.19500
C1282       C  0.80820619  0.53625253  0.42981346     0.24500
C1283       C  0.79748319  0.54567017  0.48377498    -0.23500
C1284       C  0.81211104  0.56948165  0.01304253     0.19400
F1285       F  0.80535642  0.57708849  0.06740455    -0.13400
F1286       F  0.84827470  0.60778304  0.51791996    -0.15800
F1287       F  0.79896853  0.51006675  0.40290101    -0.15800
F1288       F  0.84022485  0.54303896  0.35264071    -0.13400
C1289       C  0.68961350  0.69305489  0.25267657     0.24600
C1290       C  0.67573268  0.66922969  0.22282240    -0.23500
C1291       C  0.68653100  0.65915372  0.17054023     0.19500
C1292       C  0.70976603  0.67384379  0.14639729     0.24500
C1293       C  0.72320425  0.69926488  0.17392990    -0.23500
C1294       C  0.71279508  0.70848609  0.22813395     0.19400
F1295       F  0.72319759  0.73376348  0.25607706    -0.13400
F1296       F  0.67965440  0.70275446  0.30389564    -0.15800
F1297       F  0.71743913  0.66470425  0.09331734    -0.15800
F1298       F  0.67423649  0.63504553  0.14199019    -0.13400
C1299       C  0.69809665  0.75773197  0.48418145     0.24600
C1300       C  0.72042992  0.77394070  0.01106322    -0.23500
C1301       C  0.72514472  0.80578976  0.99673258     0.19500
C1302       C  0.70589886  0.82200713  0.46126405     0.24500
C1303       C  0.68142917  0.80692701  0.44118876    -0.23500
C1304       C  0.67832010  0.77441336  0.45045626     0.19400
F1305       F  0.65520325  0.75931120  0.42986892    -0.13400
F1306       F  0.69450356  0.72616385  0.49286037    -0.15800
F1307       F  0.71008183  0.85309495  0.44930156    -0.15800
F1308       F  0.74674911  0.82181736  0.02120843    -0.13400
C1309       C  0.81778802  0.81755403  0.22617867     0.24600
C1310       C  0.84450027  0.81701761  0.19952800    -0.23500
C1311       C  0.84751610  0.80051917  0.14797030     0.19500
C1312       C  0.82452953  0.78485451  0.12392207     0.24500
C1313       C  0.79796684  0.78491373  0.15106542    -0.23500
C1314       C  0.79479887  0.80181791  0.20207671     0.19400
F1315       F  0.76914859  0.80373607  0.22808631    -0.13400
F1316       F  0.81343476  0.83444742  0.27431889    -0.15800
F1317       F  0.82875213  0.76914778  0.07460766    -0.15800
F1318       F  0.87275285  0.79961948  0.12022074    -0.13400
C1319       C  0.82543597  0.70081489  0.05128819     0.24600
C1320       C  0.80035081  0.71169767  0.02510769    -0.23500
C1321       C  0.79870460  0.71363020  0.46553461     0.19500
C1322       C  0.82136133  0.70262379  0.43217820     0.24500
C1323       C  0.84637293  0.69053544  0.45847925    -0.23500
C1324       C  0.84848482  0.69108780  0.51868511     0.19400
F1325       F  0.87233551  0.68124580  0.04659881    -0.13400
F1326       F  0.82792682  0.70025168  0.10902303    -0.15800
F1327       F  0.81846669  0.70305084  0.37456481    -0.15800
F1328       F  0.77472161  0.72513730  0.43969945    -0.13400
C1329       C  0.20304587  0.93594542  0.22006706     0.24600
C1330       C  0.17471034  0.94534150  0.20913721    -0.23500
C1331       C  0.16877061  0.96800031  0.16625565     0.19500
C1332       C  0.19067783  0.98024940  0.13335561     0.24500
C1333       C  0.21881357  0.96956223  0.14207194    -0.23500
C1334       C  0.22496400  0.94776276  0.18628724     0.19400
F1335       F  0.25208949  0.93762541  0.19619658    -0.13400
F1336       F  0.20920915  0.91334460  0.26014335    -0.15800
F1337       F  0.18413680  0.50123203  0.09082411    -0.15800
F1338       F  0.14152379  0.97709385  0.15444510    -0.13400
C1339       C  0.19263557  0.80105599  0.24820519     0.24600
C1340       C  0.18339078  0.82955840  0.22255406    -0.23500
C1341       C  0.19882541  0.84259302  0.17707407     0.19500
C1342       C  0.22145831  0.82570600  0.15358651     0.24500
C1343       C  0.22853335  0.79545229  0.17476021    -0.23500
C1344       C  0.21513595  0.78392415  0.22411231     0.19400
F1345       F  0.22156151  0.75440003  0.24448677    -0.13400
F1346       F  0.17815566  0.78837217  0.29258033    -0.15800
F1347       F  0.23396271  0.83697924  0.10561656    -0.15800
F1348       F  0.19079700  0.87081919  0.15309013    -0.13400
C1349       C  0.16652533  0.68896387  0.52750573     0.24600
C1350       C  0.17017456  0.68136481  0.46965848    -0.23500
C1351       C  0.19656257  0.68702568  0.44408308     0.19500
C1352       C  0.21822030  0.70151548  0.47470665     0.24500
C1353       C  0.21375152  0.71139497  0.03131098    -0.23500
C1354       C  0.18850765  0.70223085  0.05840109     0.19400
F1355       F  0.18484802  0.70602291  0.11531799    -0.13400
F1356       F  0.14211280  0.68251634  0.05542173    -0.15800
F1357       F  0.24400658  0.70375356  0.44962493    -0.15800
F1358       F  0.20195528  0.67751000  0.39008170    -0.13400
C1359       C  0.20703672  0.52707657  0.45681884     0.24600
C1360       C  0.21940148  0.53992211  0.00660712    -0.23500
C1361       C  0.20629009  0.56651475  0.03129978     0.19500
C1362       C  0.18122059  0.57936103  0.50809341     0.24500
C1363       C  0.16931976  0.56680455  0.45817942    -0.23500
C1364       C  0.18261886  0.54094160  0.43224832     0.19400
F1365       F  0.17162607  0.52872535  0.38371704    -0.13400
F1366       F  0.21779179  0.00046334  0.43258100    -0.15800
F1367       F  0.16932772  0.60528190  0.53278279    -0.15800
F1368       F  0.21807740  0.58072202  0.07716516    -0.13400
O1369       O  0.10043169  0.66366126  0.82680433    -0.73500
O1370       O  0.14831711  0.59429289  0.87915495    -0.73500
O1371       O  0.09787661  0.59855969  0.81986634    -0.73500
O1372       O  0.15027215  0.65731946  0.88626279    -0.73600
O1373       O  0.12700620  0.65373241  0.96827732    -0.73500
O1374       O  0.07382592  0.59796655  0.90142913    -0.73500
O1375       O  0.12396272  0.59170048  0.96037328    -0.73500
O1376       O  0.07888979  0.66249294  0.91099127    -0.73500
Ni1377     Ni  0.12491649  0.62847958  0.84967641     1.25400
Ni1378     Ni  0.09981380  0.62629305  0.93766224     1.25400
C1379       C  0.08201940  0.67493312  0.86143340     0.88700
C1380       C  0.14547719  0.58390941  0.93032886     0.88700
C1381       C  0.07730458  0.58832255  0.85032961     0.88700
C1382       C  0.14793915  0.66376885  0.93937197     0.88900
N1383       N  0.00603475  0.55659080  0.81528123    -0.35600
N1384       N  0.04978018  0.50802760  0.80846166    -0.56200
N1385       N  0.00534215  0.96226423  0.78859146    -0.35600
N1386       N  0.96129168  0.51136863  0.79224724    -0.56200
C1387       C  0.02978947  0.57416000  0.81056699     0.27900
C1388       C  0.98361005  0.57581041  0.80190272     0.27900
C1389       C  0.02887590  0.94527674  0.77396631     0.27900
C1390       C  0.98248636  0.94681576  0.76780619     0.27900
C1391       C  0.06585653  0.53187831  0.82832769     0.36600
C1392       C  0.06571702  0.98113210  0.81277019     0.36600
C1393       C  0.94499444  0.53660939  0.80730257     0.36600
C1394       C  0.94451248  0.98556729  0.79398191     0.36600
C1395       C  0.02247472  0.60446543  0.79204946    -0.20900
C1396       C  0.99325303  0.60556240  0.78680439    -0.20900
C1397       C  0.02065163  0.91889162  0.74358643    -0.20900
C1398       C  0.99177857  0.91985684  0.73974232    -0.20900
C1399       C  0.09233573  0.52021728  0.84496142    -0.22000
C1400       C  0.09239317  0.98815000  0.83451436    -0.22000
C1401       C  0.91745409  0.52693017  0.81752965    -0.22000
C1402       C  0.91707697  0.99462635  0.80850565    -0.22000
C1403       C  0.05741437  0.56422349  0.82775487    -0.17300
C1404       C  0.95475559  0.56823061  0.81015725    -0.17300
C1405       C  0.95351440  0.95464836  0.77816976    -0.17300
C1406       C  0.05723036  0.95131632  0.79162608    -0.17300
H1407       H  0.03674715  0.62386451  0.78408634     0.15600
H1408       H  0.98043427  0.62607994  0.77452701     0.15600
H1409       H  0.03344120  0.89959422  0.72748974     0.15600
H1410       H  0.97954065  0.90148596  0.72014405     0.15600
H1411       H  0.11003418  0.53352628  0.86130814     0.07500
H1412       H  0.11032181  0.97220155  0.84131367     0.13900
H1413       H  0.89946977  0.54163385  0.82948624     0.13900
H1414       H  0.89870083  0.97964254  0.81200615     0.13900
H1415       H  0.00480744  0.53444748  0.83504822     0.27100
H1416       H  0.00464870  0.98090828  0.81713964     0.27100
N1417       N  0.00971746  0.71150176  0.83412571    -0.35600
N1418       N  0.05488812  0.75756723  0.82393248    -0.56200
N1419       N  0.01113350  0.80617207  0.80275028    -0.35600
N1420       N  0.96609271  0.76018803  0.81623777    -0.56200
C1421       C  0.03243667  0.69345842  0.85086673     0.27900
C1422       C  0.98611424  0.69483139  0.84680702     0.27900
C1423       C  0.03427708  0.82404747  0.81251591     0.27900
C1424       C  0.98799449  0.82543770  0.80775381     0.27900
C1425       C  0.07139166  0.73100027  0.82686297     0.36600
C1426       C  0.07194253  0.78193857  0.80982948     0.36600
C1427       C  0.94911807  0.73457400  0.81540745     0.36600
C1428       C  0.95018123  0.78532394  0.79798694     0.36600
C1429       C  0.02290185  0.66493280  0.87291741    -0.20900
C1430       C  0.99427910  0.66572381  0.87021341    -0.20900
C1431       C  0.02569119  0.85478802  0.82470419    -0.20900
C1432       C  0.99647518  0.85563267  0.82178737    -0.20900
C1433       C  0.09937260  0.73867134  0.81558726    -0.22000
C1434       C  0.09966231  0.77088106  0.80418825    -0.22000
C1435       C  0.92202918  0.74363036  0.79746188    -0.22000
C1436       C  0.92279367  0.77568584  0.78585289    -0.22000
C1437       C  0.06160339  0.70064485  0.84389335    -0.17300
C1438       C  0.95744078  0.70384977  0.83487531    -0.17300
C1439       C  0.95962370  0.81706364  0.79586891    -0.17300
C1440       C  0.06292619  0.81417107  0.80586157    -0.17300
H1441       H  0.03470564  0.64415942  0.88690849     0.15600
H1442       H  0.98169230  0.64554530  0.88165928     0.15600
H1443       H  0.03915160  0.87463337  0.83423544     0.15600
H1444       H  0.98295170  0.87615583  0.82894097     0.15600
H1445       H  0.11771698  0.72289305  0.81608118     0.13900
H1446       H  0.11822842  0.78468929  0.79436159     0.13900
H1447       H  0.90352798  0.72892807  0.79341045     0.13900
H1448       H  0.90503583  0.79029034  0.77135636     0.13900
H1449       H  0.01036932  0.73234684  0.81055904     0.27100
H1450       H  0.01130484  0.78356154  0.78567922     0.27100
O1451       O  0.13851931  0.85239381  0.70126714    -0.73500
O1452       O  0.08091829  0.91387440  0.73252253    -0.73500
O1453       O  0.13418928  0.91491949  0.69486934    -0.73500
O1454       O  0.08398654  0.84919644  0.73889001    -0.73600
O1455       O  0.09943223  0.85155740  0.82883616    -0.73500
O1456       O  0.15069388  0.91777777  0.78409274    -0.73500
O1457       O  0.09583366  0.91667761  0.82254324    -0.73500
O1458       O  0.15419844  0.85471192  0.79119399    -0.73500
Ni1459     Ni  0.10862684  0.88233530  0.71403493     1.25400
Ni1460     Ni  0.12537841  0.88527238  0.81021225     1.25400
C1461       C  0.15708984  0.84553724  0.73975607     0.88700
C1462       C  0.07917653  0.92609143  0.78204730     0.88700
C1463       C  0.15165900  0.92586723  0.73123732     0.88700
C1464       C  0.08354574  0.83919967  0.79060793     0.88900
C1465       C  0.74193799  0.72043609  0.63759376     0.87500
C1466       C  0.76044399  0.74505173  0.66702962    -0.52800
C1467       C  0.77460791  0.76459275  0.63026198     0.10400
C1468       C  0.76871607  0.75756522  0.56658694     0.21300
C1469       C  0.72261447  0.73953536  0.59714902    -0.53500
C1470       C  0.73627967  0.75808854  0.55885308     0.10500
C1471       C  0.76335874  0.70300410  0.59889000    -0.53000
C1472       C  0.77689523  0.72251076  0.56127163     0.11100
H1473       H  0.76537569  0.74436077  0.71217709     0.15600
H1474       H  0.77996795  0.77314594  0.53602994     0.01300
H1475       H  0.69960625  0.73753921  0.59759323     0.15900
H1476       H  0.76829836  0.67782532  0.60238555     0.15700
C1477       C  0.77605344  0.52585002  0.51660240     0.87500
C1478       C  0.79223158  0.50241857  0.55515124    -0.52800
C1479       C  0.77549721  0.98352946  0.58715772     0.10400
C1480       C  0.74363107  0.98900935  0.57735435     0.21300
C1481       C  0.75589742  0.50557922  0.48095554    -0.53500
C1482       C  0.73902696  0.98616843  0.51244038     0.10500
C1483       C  0.75555463  0.54386381  0.55697726    -0.53000
C1484       C  0.73874249  0.52426768  0.58882559     0.11100
H1485       H  0.81531016  0.50127186  0.55791681     0.15600
H1486       H  0.73009024  0.97368947  0.60423501     0.01300
H1487       H  0.75405997  0.50718449  0.93488912     0.15900
H1488       H  0.75371464  0.56950376  0.55883696     0.15700
O1489       O  0.65154542  0.64168490  0.79639895    -0.73500
O1490       O  0.59805393  0.57731789  0.83628949    -0.73500
O1491       O  0.65077151  0.57893013  0.78461597    -0.73500
O1492       O  0.59924883  0.64208869  0.84601202    -0.73600
O1493       O  0.57843155  0.64637295  0.76048753    -0.73500
O1494       O  0.62947280  0.58473700  0.69982226    -0.73500
O1495       O  0.57847735  0.58209185  0.74998423    -0.73500
O1496       O  0.63041150  0.64708051  0.71124103    -0.73500
Ni1497     Ni  0.62545891  0.60969292  0.81926137     1.25400
Ni1498     Ni  0.60326401  0.61531163  0.72776592     1.25400
C1499       C  0.65089156  0.65294800  0.74557111     0.88700
C1500       C  0.57935039  0.56906806  0.79953281     0.88700
C1501       C  0.64957007  0.57325641  0.73090754     0.88700
C1502       C  0.58072942  0.65508997  0.81231498     0.88900
O1503       O  0.58562823  0.82950503  0.92300266    -0.73500
O1504       O  0.63338141  0.89772751  0.95935622    -0.73500
O1505       O  0.57959526  0.89440675  0.91998462    -0.73500
O1506       O  0.63913765  0.83504245  0.96031982    -0.73600
O1507       O  0.65412097  0.83503492  0.87016584    -0.73500
O1508       O  0.59586541  0.89654061  0.83096429    -0.73500
O1509       O  0.65017455  0.89860277  0.87053046    -0.73500
O1510       O  0.59905174  0.83108684  0.83216205    -0.73500
Ni1511     Ni  0.60867759  0.86410787  0.94352876     1.25400
Ni1512     Ni  0.62519174  0.86529347  0.84741605     1.25400
C1513       C  0.58399963  0.81903576  0.87226295     0.88700
C1514       C  0.65084863  0.90791872  0.92239143     0.88700
C1515       C  0.57875972  0.90636432  0.86941745     0.88700
C1516       C  0.65689045  0.82627297  0.92232611     0.88900
O1517       O  0.36509558  0.89546296  0.87904896    -0.73500
O1518       O  0.41963511  0.83055411  0.84274755    -0.73500
O1519       O  0.36771942  0.83265411  0.89379586    -0.73500
O1520       O  0.41705714  0.89542673  0.82943057    -0.73600
O1521       O  0.43904766  0.89833298  0.91378375    -0.73500
O1522       O  0.38697113  0.84123771  0.97941259    -0.73500
O1523       O  0.43776229  0.83419739  0.93028494    -0.73500
O1524       O  0.38759519  0.90343230  0.96171840    -0.73500
Ni1525     Ni  0.39179068  0.86322392  0.85781865     1.25400
Ni1526     Ni  0.41378719  0.86944588  0.94903332     1.25400
C1527       C  0.36707391  0.90940165  0.92698083     0.88700
C1528       C  0.43732493  0.82111117  0.88130233     0.88700
C1529       C  0.36805776  0.82874650  0.94812780     0.88700
C1530       C  0.43581410  0.90766937  0.86212082     0.88900
C1531       C  0.28215019  0.98407671  0.54133703     0.87500
C1532       C  0.26421069  0.00730980  0.50530037    -0.52800
C1533       C  0.24442172  0.52416283  0.53511526     0.10400
C1534       C  0.24619409  0.51803116  0.60019844     0.21300
C1535       C  0.29593211  0.00390919  0.58765601    -0.53500
C1536       C  0.27747061  0.52189243  0.61785295     0.10500
C1537       C  0.26049345  0.96419360  0.57551671    -0.53000
C1538       C  0.24167100  0.98231752  0.60606336     0.11100
H1539       H  0.26601267  0.00868049  0.95931146     0.15600
H1540       H  0.23117904  0.53217020  0.62621875     0.01300
H1541       H  0.31836739  0.50269963  0.59869179     0.15900
H1542       H  0.26024950  0.93848863  0.57664934     0.15700
O1543       O  0.43021165  0.58440597  0.75081472    -0.73500
O1544       O  0.38392355  0.65703066  0.71778712    -0.73500
O1545       O  0.43711341  0.64842825  0.76012518    -0.73500
O1546       O  0.37688594  0.59510790  0.70994403    -0.73600
O1547       O  0.36131641  0.59044301  0.79927478    -0.73500
O1548       O  0.41846670  0.64900638  0.84724418    -0.73500
O1549       O  0.36429676  0.65349960  0.80384373    -0.73500
O1550       O  0.41586844  0.58389999  0.84109646    -0.73500
Ni1551     Ni  0.40785177  0.62117720  0.73183696     1.25400
Ni1552     Ni  0.38957900  0.61908075  0.82640550     1.25400
C1553       C  0.43147433  0.57255330  0.80119900     0.88700
C1554       C  0.36489337  0.66548941  0.75330505     0.88700
C1555       C  0.43689911  0.65876978  0.81131410     0.88700
C1556       C  0.35838475  0.58559298  0.74580764     0.88900
C1557       C  0.23511319  0.73114731  0.56374019     0.87500
C1558       C  0.22119886  0.75568248  0.60249654    -0.52800
C1559       C  0.23977366  0.77242169  0.63414048     0.10400
C1560       C  0.27110114  0.76458171  0.62234675     0.21300
C1561       C  0.25474037  0.75150604  0.52697744    -0.53500
C1562       C  0.27432034  0.76793828  0.55721553     0.10500
C1563       C  0.25496585  0.71119991  0.60296162    -0.53000
C1564       C  0.27385805  0.72884895  0.63324155     0.11100
H1565       H  0.19843200  0.76016936  0.60450774     0.15600
H1566       H  0.28624733  0.77845516  0.64808172     0.01300
H1567       H  0.25312736  0.75387513  0.98108605     0.15900
H1568       H  0.25474626  0.68547655  0.60498401     0.15700
N1569       N  0.50620457  0.94191668  0.84566020    -0.35600
N1570       N  0.54976807  0.98873370  0.83537037    -0.56200
N1571       N  0.50522599  0.53709096  0.81880528    -0.35600
N1572       N  0.46138564  0.98986877  0.82667834    -0.56200
C1573       C  0.52963734  0.92308736  0.84152105     0.27900
C1574       C  0.48356148  0.92370396  0.83414675     0.27900
C1575       C  0.52849897  0.55310362  0.80131971     0.27900
C1576       C  0.48193559  0.55404846  0.80115103     0.27900
C1577       C  0.56611554  0.96405769  0.85448428     0.36600
C1578       C  0.56611983  0.51484477  0.83612132     0.36600
C1579       C  0.44508585  0.96471763  0.83975127     0.36600
C1580       C  0.44435673  0.51601695  0.82839459     0.36600
C1581       C  0.52184983  0.89286314  0.82610372    -0.20900
C1582       C  0.49270112  0.89316868  0.82183261    -0.20900
C1583       C  0.51956831  0.58064459  0.77301863    -0.20900
C1584       C  0.49064392  0.58117539  0.77288247    -0.20900
C1585       C  0.59308216  0.97448054  0.86756018    -0.22000
C1586       C  0.59324362  0.50651791  0.85534267    -0.22000
C1587       C  0.41732049  0.97483383  0.84876784    -0.22000
C1588       C  0.41681116  0.50733433  0.84123077    -0.22000
C1589       C  0.55759027  0.93195612  0.85529863    -0.17300
C1590       C  0.45487740  0.93275312  0.84148442    -0.17300
C1591       C  0.45309328  0.54692120  0.81285815    -0.17300
C1592       C  0.55743319  0.54504590  0.81409902    -0.17300
H1593       H  0.53576298  0.87264463  0.81916948     0.15600
H1594       H  0.47961420  0.87306656  0.81187179     0.15600
H1595       H  0.53193490  0.59980544  0.75599958     0.15600
H1596       H  0.47797334  0.60048910  0.75531278     0.15600
H1597       H  0.61095375  0.96030123  0.88279554     0.13900
H1598       H  0.61151024  0.52155356  0.85942497     0.13900
H1599       H  0.39921835  0.96025502  0.85836051     0.13900
H1600       H  0.39821306  0.52264359  0.84384374     0.13900
H1601       H  0.50537698  0.96434281  0.86351470     0.27100
H1602       H  0.50520708  0.51777780  0.84664576     0.27100
N1603       N  0.51045032  0.78583591  0.86065400    -0.35600
N1604       N  0.46586498  0.73922635  0.84835872    -0.56200
N1605       N  0.50959419  0.69128835  0.83284521    -0.35600
N1606       N  0.55442592  0.73763761  0.84782956    -0.56200
C1607       C  0.48760587  0.80235922  0.88015481     0.27900
C1608       C  0.53396995  0.80185475  0.87630951     0.27900
C1609       C  0.48628755  0.67316687  0.83933174     0.27900
C1610       C  0.53262691  0.67226381  0.84225826     0.27900
C1611       C  0.44936576  0.76577352  0.84946169     0.36600
C1612       C  0.44908828  0.71527175  0.83136918     0.36600
C1613       C  0.57095722  0.76355583  0.84369329     0.36600
C1614       C  0.57050548  0.71242334  0.83199168     0.36600
C1615       C  0.49694490  0.82915050  0.90800460    -0.20900
C1616       C  0.52576950  0.82877724  0.90573396    -0.20900
C1617       C  0.49454473  0.64257162  0.85437718    -0.20900
C1618       C  0.52382424  0.64196869  0.85615877    -0.20900
C1619       C  0.42169501  0.75842949  0.83424650    -0.22000
C1620       C  0.42161073  0.72654870  0.82218785    -0.22000
C1621       C  0.59798964  0.75466437  0.82628003    -0.22000
C1622       C  0.59764548  0.72228473  0.81844651    -0.22000
C1623       C  0.45862148  0.79564571  0.86903502    -0.17300
C1624       C  0.56242488  0.79431664  0.86107582    -0.17300
C1625       C  0.56116877  0.68060118  0.83206388    -0.17300
C1626       C  0.45793892  0.68307384  0.82815318    -0.17300
H1627       H  0.48489456  0.84837413  0.92633859     0.15600
H1628       H  0.53858620  0.84759113  0.92222261     0.15600
H1629       H  0.48083030  0.62273862  0.86284686     0.15600
H1630       H  0.53719247  0.62143748  0.86557567     0.15600
H1631       H  0.40327596  0.77406739  0.83290183     0.13900
H1632       H  0.40323906  0.71308638  0.80975865     0.13900
H1633       H  0.61615078  0.76976852  0.82058119     0.13900
H1634       H  0.61544814  0.70764260  0.80524832     0.13900
H1635       H  0.50992096  0.76709348  0.83236909     0.27100
H1636       H  0.50984899  0.71391817  0.81484205     0.27100
O1637       O  0.88978322  0.59883065  0.94008786    -0.73500
O1638       O  0.93760258  0.66659293  0.89876085    -0.73500
O1639       O  0.88906726  0.66076606  0.95377885    -0.73500
O1640       O  0.93982108  0.60234479  0.88414034    -0.73600
O1641       O  0.91571148  0.60635194  0.80215436    -0.73500
O1642       O  0.86607807  0.66890205  0.87165916    -0.73500
O1643       O  0.91672341  0.67132620  0.81365732    -0.73500
O1644       O  0.86518982  0.60593750  0.85907349    -0.73500
Ni1645     Ni  0.91510585  0.63187048  0.92157583     1.25400
Ni1646     Ni  0.89021796  0.63841367  0.83319946     1.25400
C1647       C  0.86807167  0.59348320  0.90885798     0.88700
C1648       C  0.93563289  0.67993193  0.84965808     0.88700
C1649       C  0.86847161  0.67334906  0.92562251     0.88700
C1650       C  0.93573126  0.59366555  0.83268857     0.88900
O1651       O  0.91672535  0.91816566  0.80668924    -0.73500
O1652       O  0.86703035  0.84903902  0.77057587    -0.73500
O1653       O  0.92072545  0.85290953  0.81459304    -0.73500
O1654       O  0.86250419  0.91195731  0.76418409    -0.73600
O1655       O  0.87899614  0.90810341  0.67552945    -0.73500
O1656       O  0.93936385  0.85325958  0.72742835    -0.73500
O1657       O  0.88643122  0.84620010  0.68444884    -0.73500
O1658       O  0.93174612  0.91761322  0.71689166    -0.73500
Ni1659     Ni  0.89135635  0.88317156  0.79257394     1.25400
Ni1660     Ni  0.91000546  0.88136831  0.69831816     1.25400
C1661       C  0.93235314  0.92943975  0.76679905     0.88700
C1662       C  0.86751094  0.83769189  0.72001123     0.88700
C1663       C  0.93905716  0.84262191  0.77880855     0.88700
C1664       C  0.85981097  0.91703220  0.71050444     0.88900
C1665       C  0.34746366  0.70895307  0.68894430     0.24600
C1666       C  0.34180866  0.68660665  0.73215176    -0.23500
C1667       C  0.31336569  0.67970347  0.74516724     0.19500
C1668       C  0.29109735  0.69371612  0.71346086     0.24500
C1669       C  0.29695853  0.71501531  0.66887494    -0.23500
C1670       C  0.32525093  0.72307846  0.65773382     0.19400
F1671       F  0.33159695  0.74312036  0.61416167    -0.13400
F1672       F  0.37464076  0.71592434  0.67493320    -0.15800
F1673       F  0.26385799  0.68601574  0.72545171    -0.15800
F1674       F  0.30718029  0.65740386  0.78518352    -0.13400
C1675       C  0.29438792  0.57297335  0.65272831     0.24600
C1676       C  0.28854958  0.54117555  0.66457827    -0.23500
C1677       C  0.30243603  0.52568282  0.71073054     0.19500
C1678       C  0.32416550  0.54080435  0.74052483     0.24500
C1679       C  0.33232468  0.57129459  0.72370236    -0.23500
C1680       C  0.31636507  0.58787128  0.68172344     0.19400
F1681       F  0.32327400  0.61788898  0.66633207    -0.13400
F1682       F  0.28127874  0.58824382  0.60832799    -0.15800
F1683       F  0.33903169  0.52460886  0.78155411    -0.15800
F1684       F  0.29718297  0.49472148  0.72235729    -0.13400
C1685       C  0.33450901  0.78393856  0.95513298     0.24600
C1686       C  0.34500423  0.81222739  0.97653027    -0.23500
C1687       C  0.33250458  0.82595958  0.02483646     0.19500
C1688       C  0.30926574  0.81183419  0.55056830     0.24500
C1689       C  0.29846249  0.78354518  0.52908158    -0.23500
C1690       C  0.31163318  0.76945474  0.98168278     0.19400
F1691       F  0.30315529  0.74095617  0.96200556    -0.13400
F1692       F  0.34694887  0.76987118  0.90968866    -0.15800
F1693       F  0.29689562  0.82652759  0.59540085    -0.15800
F1694       F  0.34217245  0.85371182  0.04578751    -0.13400
C1695       C  0.31632633  0.92059289  0.94708488     0.24600
C1696       C  0.34447492  0.93099925  0.94499800    -0.23500
C1697       C  0.35130196  0.96053565  0.96689832     0.19500
C1698       C  0.33062550  0.97871778  0.99384823     0.24500
C1699       C  0.30343956  0.96612362  0.50468487    -0.23500
C1700       C  0.29583392  0.93814684  0.47632282     0.19400
F1701       F  0.26869688  0.92773053  0.47670718    -0.13400
F1702       F  0.30907266  0.89257160  0.92353409    -0.15800
F1703       F  0.33740031  0.50875785  0.00822238    -0.15800
F1704       F  0.37812548  0.97168630  0.96258530    -0.13400
C1705       C  0.71120913  0.93644493  0.51206695     0.24600
C1706       C  0.71709779  0.96587971  0.48669603    -0.23500
C1707       C  0.70118808  0.97597855  0.93790624     0.19500
C1708       C  0.68020327  0.95665423  0.91512213     0.24500
C1709       C  0.67359067  0.92816386  0.94264595    -0.23500
C1710       C  0.68892441  0.91844579  0.99150930     0.19400
F1711       F  0.68259261  0.89107727  0.01938899    -0.13400
F1712       F  0.72732354  0.92455391  0.55574481    -0.15800
F1713       F  0.66550490  0.96645920  0.86799109    -0.15800
F1714       F  0.70491712  0.50500312  0.91384501    -0.13400
C1715       C  0.66645332  0.53674153  0.65506123     0.24600
C1716       C  0.67278092  0.55607783  0.70176182    -0.23500
C1717       C  0.70127121  0.56411579  0.71224491     0.19500
C1718       C  0.72282738  0.55396932  0.67535674     0.24500
C1719       C  0.71625619  0.53534002  0.62800804    -0.23500
C1720       C  0.68803127  0.52610976  0.61904335     0.19400
F1721       F  0.68111595  0.00790191  0.57382710    -0.13400
F1722       F  0.63915021  0.52902697  0.64315666    -0.15800
F1723       F  0.75008536  0.56241855  0.68566695    -0.15800
F1724       F  0.70797626  0.58363354  0.75575380    -0.13400
C1725       C  0.79945198  0.93263492  0.60839500     0.24600
C1726       C  0.78856153  0.96140108  0.62847100    -0.23500
C1727       C  0.79792684  0.97298532  0.68118853     0.19500
C1728       C  0.82013272  0.95748450  0.71079375     0.24500
C1729       C  0.83338249  0.93081673  0.68684530    -0.23500
C1730       C  0.82173660  0.91738416  0.63742080     0.19400
F1731       F  0.83285391  0.89019077  0.61578061    -0.13400
F1732       F  0.79050657  0.92109801  0.55765104    -0.15800
F1733       F  0.83022331  0.97001984  0.75982171    -0.15800
F1734       F  0.78753265  0.00096159  0.70083954    -0.13400
C1735       C  0.83516292  0.58451335  0.98841700     0.24600
C1736       C  0.84456156  0.57603917  0.93402185    -0.23500
C1737       C  0.83073738  0.55223164  0.90441210     0.19500
C1738       C  0.80819663  0.53624352  0.92966074     0.24500
C1739       C  0.79748570  0.54562167  0.98365276    -0.23500
C1740       C  0.81209399  0.56956753  0.51309962     0.19400
F1741       F  0.80532621  0.57722868  0.56742857    -0.13400
F1742       F  0.84831651  0.60766187  0.01796552    -0.15800
F1743       F  0.79897264  0.51006340  0.90271154    -0.15800
F1744       F  0.84017692  0.54310882  0.85245335    -0.13400
C1745       C  0.68953579  0.69313738  0.75261881     0.24600
C1746       C  0.67578777  0.66914537  0.72297033    -0.23500
C1747       C  0.68673759  0.65886887  0.67094242     0.19500
C1748       C  0.71000606  0.67351573  0.64682142     0.24500
C1749       C  0.72333069  0.69908216  0.67414996    -0.23500
C1750       C  0.71274091  0.70852405  0.72809119     0.19400
F1751       F  0.72298603  0.73398716  0.75573014    -0.13400
F1752       F  0.67941271  0.70304729  0.80357611    -0.15800
F1753       F  0.71780724  0.66418454  0.59392953    -0.15800
F1754       F  0.67454664  0.63461860  0.64260394    -0.13400
C1755       C  0.69807927  0.75784807  0.98391709     0.24600
C1756       C  0.72044213  0.77381740  0.51136127    -0.23500
C1757       C  0.72513717  0.80568125  0.49711737     0.19500
C1758       C  0.70591278  0.82210014  0.96083891     0.24500
C1759       C  0.68142867  0.80702095  0.94082694    -0.23500
C1760       C  0.67830867  0.77451601  0.95016266     0.19400
F1761       F  0.65517908  0.75941448  0.92963274    -0.13400
F1762       F  0.69446755  0.72628977  0.99267816    -0.15800
F1763       F  0.71011454  0.85317391  0.94878217    -0.15800
F1764       F  0.74673193  0.82170443  0.52163630    -0.13400
C1765       C  0.81784139  0.81738131  0.72647137     0.24600
C1766       C  0.84452632  0.81695969  0.69971078    -0.23500
C1767       C  0.84752839  0.80052630  0.64807897     0.19500
C1768       C  0.82455481  0.78482370  0.62405832     0.24500
C1769       C  0.79801564  0.78478228  0.65129407    -0.23500
C1770       C  0.79486311  0.80161406  0.70238957     0.19400
F1771       F  0.76923484  0.80343680  0.72850286    -0.13400
F1772       F  0.81350055  0.83418998  0.77471168    -0.15800
F1773       F  0.82876973  0.76918197  0.57467336    -0.15800
F1774       F  0.87273849  0.79972766  0.62022565    -0.13400
C1775       C  0.82554407  0.70081877  0.55141187     0.24600
C1776       C  0.80045096  0.71167718  0.52522941    -0.23500
C1777       C  0.79858519  0.71358366  0.96540872     0.19500
C1778       C  0.82123088  0.70253785  0.93205527     0.24500
C1779       C  0.84625752  0.69048381  0.95835575    -0.23500
C1780       C  0.84836608  0.69104489  0.01856390     0.19400
F1781       F  0.87246501  0.68131173  0.54670887    -0.13400
F1782       F  0.82802942  0.70023722  0.60914733    -0.15800
F1783       F  0.81830989  0.70289408  0.87444717    -0.15800
F1784       F  0.77459364  0.72506562  0.93956997    -0.13400
C1785       C  0.20310397  0.93580154  0.71989436     0.24600
C1786       C  0.17477495  0.94529083  0.70913932    -0.23500
C1787       C  0.16883524  0.96802282  0.66638946     0.19500
C1788       C  0.19072889  0.98025014  0.63342871     0.24500
C1789       C  0.21885473  0.96948312  0.64197263    -0.23500
C1790       C  0.22501078  0.94761360  0.68607501     0.19400
F1791       F  0.25212993  0.93741201  0.69584696    -0.13400
F1792       F  0.20926465  0.91312736  0.75983851    -0.15800
F1793       F  0.18417719  0.50130440  0.59101310    -0.15800
F1794       F  0.14159442  0.97721301  0.65476503    -0.13400
C1795       C  0.19275289  0.80116343  0.74809215     0.24600
C1796       C  0.18340674  0.82960097  0.72234529    -0.23500
C1797       C  0.19875467  0.84261311  0.67672056     0.19500
C1798       C  0.22139700  0.82575673  0.65320257     0.24500
C1799       C  0.22858564  0.79556446  0.67452066    -0.23500
C1800       C  0.21527643  0.78407135  0.72399443     0.19400
F1801       F  0.22179752  0.75459434  0.74447860    -0.13400
F1802       F  0.17834657  0.78848928  0.79257448    -0.15800
F1803       F  0.23379591  0.83697923  0.60507974    -0.15800
F1804       F  0.19063429  0.87078281  0.65263752    -0.13400
C1805       C  0.16666103  0.68871124  0.02756924     0.24600
C1806       C  0.17024938  0.68126260  0.96963437    -0.23500
C1807       C  0.19659438  0.68706269  0.94398122     0.19500
C1808       C  0.21823843  0.70159678  0.97458973     0.24500
C1809       C  0.21370421  0.71141619  0.53135416    -0.23500
C1810       C  0.18838894  0.70242247  0.55837287     0.19400
F1811       F  0.18467735  0.70631281  0.61525300    -0.13400
F1812       F  0.14189726  0.68297952  0.55523009    -0.15800
F1813       F  0.24398785  0.70398090  0.94940594    -0.15800
F1814       F  0.20195937  0.67764992  0.88990898    -0.13400
C1815       C  0.20699792  0.52701834  0.95688473     0.24600
C1816       C  0.21942414  0.53992211  0.50660764    -0.23500
C1817       C  0.20627964  0.56645953  0.53142634     0.19500
C1818       C  0.18125527  0.57942898  0.00788664     0.24500
C1819       C  0.16933597  0.56681251  0.95804093    -0.23500
C1820       C  0.18260033  0.54088773  0.93223700     0.19400
F1821       F  0.17159037  0.52861215  0.88377180    -0.13400
F1822       F  0.21771772  0.00034407  0.93280729    -0.15800
F1823       F  0.16939811  0.60541096  0.03243802    -0.15800
F1824       F  0.21806083  0.58063317  0.57733291    -0.13400
loop_ 
_geom_bond_atom_site_label_1 
_geom_bond_atom_site_label_2 
_geom_bond_distance 
_geom_bond_site_symmetry_2 
_ccdc_geom_bond_type 
O1           Ni9   1.933       .  S
O1           C11   1.282       .  A
O2           Ni9   1.921       .  S
O2           C12   1.282       .  A
O3           Ni9   1.939       .  S
O3           C13   1.284       .  A
O4           Ni9   1.922       .  S
O4           C14   1.284       .  A
O5          Ni10   1.883       .  S
O5           C14   1.275       .  A
O6          Ni10   1.924       .  S
O6           C13   1.281       .  A
O7          Ni10   1.905       .  S
O7           C12   1.279       .  A
O8          Ni10   1.902       .  S
O8           C11   1.280       .  A
Ni9         Ni10   2.387       .  S
C11          C69   1.490       .  S
C12         C451   1.469       .  S
C13          C35   1.492       .  S
C14         C438   1.475       .  S
N15          C20   1.354   1_455  A
N15          C19   1.355       .  A
N15          H47   1.041       .  S
N16          C23   1.354       .  A
N16         C936   1.353   1_545  A
N17          C22   1.357   1_455  A
N17          C21   1.358       .  A
N17          H48   1.039       .  S
N18          C25   1.354       .  A
N18         C938   1.355   1_545  A
C19          C27   1.383       .  A
C19          C35   1.414       .  A
C20          C36   1.414       .  A
C20          C28   1.384       .  A
C21          C29   1.388       .  A
C21          C38   1.422       .  A
C22          C37   1.421       .  A
C22          C30   1.387       .  A
C23          C35   1.415       .  A
C23          C31   1.384       .  A
C24         N928   1.353       .  A
C24          C38   1.420       .  A
C24          C32   1.389       .  A
C25          C33   1.386       .  A
C25          C36   1.420       .  A
C26         N930   1.355       .  A
C26          C34   1.387       .  A
C26          C37   1.420       .  A
C27          C28   1.380   1_455  A
C27          H39   1.082       .  S
C28          H40   1.083       .  S
C29          C30   1.361   1_455  A
C29          H41   1.078       .  S
C30          H42   1.078       .  S
C31         C944   1.378   1_545  A
C31          H43   1.082       .  S
C32         C943   1.378       .  A
C32          H44   1.081       .  S
C33         C946   1.382   1_545  A
C33          H45   1.082       .  S
C34         C945   1.382       .  A
C34          H46   1.082       .  S
C36         C282   1.491       .  S
C37         C293   1.493       .  S
C38          C94   1.491       .  S
N49          C54   1.357   1_455  A
N49          C53   1.356       .  A
N49          H81   1.034       .  S
N50          C57   1.355       .  A
N50          C58   1.354       .  A
N51          C56   1.355   1_455  A
N51          C55   1.354       .  A
N51          H82   1.039       .  S
N52          C59   1.354       .  A
N52          C60   1.352       .  A
C53          C61   1.387       .  A
C53          C69   1.420       .  A
C54          C70   1.421       .  A
C54          C62   1.387       .  A
C55          C63   1.386       .  A
C55          C72   1.415       .  A
C56          C71   1.413       .  A
C56          C64   1.384       .  A
C57          C69   1.422       .  A
C57          C65   1.387       .  A
C58          C72   1.420       .  A
C58          C66   1.386       .  A
C59          C67   1.386       .  A
C59          C70   1.418       .  A
C60          C68   1.386       .  A
C60          C71   1.418       .  A
C61          C62   1.348   1_455  A
C61          H73   1.077       .  S
C62          H74   1.077       .  S
C63          C64   1.376   1_455  A
C63          H75   1.082       .  S
C64          H76   1.082       .  S
C65          C66   1.382       .  A
C65          H77   1.082       .  S
C66          H78   1.082       .  S
C67          C68   1.378       .  A
C67          H79   1.081       .  S
C68          H80   1.081       .  S
C70         C280   1.490       .  S
C71         C295   1.487       .  S
C72          C96   1.487       .  S
O83         Ni91   1.904       .  S
O83          C93   1.280       .  A
O84         Ni91   1.904       .  S
O84          C94   1.279       .  A
O85         Ni91   1.893       .  S
O85          C95   1.276       .  A
O86         Ni91   1.918       .  S
O86          C96   1.280       .  A
O87         Ni92   1.937       .  S
O87          C96   1.284       .  A
O88         Ni92   1.928       .  S
O88          C95   1.284       .  A
O89         Ni92   1.931       .  S
O89          C94   1.283       .  A
O90         Ni92   1.915       .  S
O90          C93   1.279       .  A
Ni91        Ni92   2.390       .  S
C93         C428   1.463       .  S
C95         C418   1.466       .  S
C97          C98   1.533       .  S
C97         C103   1.545       .  S
C97         C101   1.525       .  S
C97         C381   1.527       .  S
C98         H105   1.083       .  S
C98          C99   1.370       .  D
C99         C100   1.550       .  S
C99         C401   1.488       .  S
C100        C104   1.529       .  S
C100        C102   1.536       .  S
C100        H106   1.110       .  S
C101        H107   1.087       .  S
C101        C102   1.357       .  D
C102        C388   1.481       .  S
C103        H108   1.086       .  S
C103        C104   1.367       .  D
C104        C408   1.469       .  S
C109        C110   1.523       .  S
C109        C115   1.553       .  S
C109        C113   1.537   1_554  S
C109        C827   1.527   1_554  S
C110        H117   1.088       .  S
C110       C1023   1.354   1_545  D
C111        C112   1.529       .  S
C111       C1022   1.354       .  D
C111        C358   1.463       .  S
C112        C114   1.543       .  S
C112       C1028   1.529       .  S
C112        H118   1.109       .  S
C113        H575   1.080       .  S
C113       C1026   1.364   1_546  D
C114       C1025   1.364   1_554  D
C114        C338   1.481   1_554  S
C115        H120   1.085       .  S
C115        C116   1.372       .  D
C116       C1024   1.529   1_545  S
C116        C351   1.480       .  S
H119        C569   1.080       .  S
O121       Ni129   1.913       .  S
O121        C131   1.279       .  A
O122       Ni129   1.933       .  S
O122        C132   1.283       .  A
O123       Ni129   1.938       .  S
O123        C133   1.286       .  A
O124       Ni129   1.940       .  S
O124        C134   1.285       .  A
O125       Ni130   1.913       .  S
O125        C134   1.279       .  A
O126       Ni130   1.897       .  S
O126        C133   1.276       .  A
O127       Ni130   1.907       .  S
O127        C132   1.280       .  A
O128       Ni130   1.904       .  S
O128        C131   1.281       .  A
Ni129      Ni130   2.388       .  S
C131        C378   1.465       .  S
C132        C224   1.496       .  S
C133        C348   1.477       .  S
C134        C257   1.486       .  S
O135       Ni143   1.897       .  S
O135        C145   1.277       .  A
O136       Ni143   1.887       .  S
O136        C146   1.275       .  A
O137       Ni143   1.932       .  S
O137        C147   1.284       .  A
O138       Ni143   1.908       .  S
O138        C148   1.280       .  A
O139       Ni144   1.921       .  S
O139        C148   1.279       .  A
O140       Ni144   1.928       .  S
O140        C147   1.281       .  A
O141       Ni144   1.927       .  S
O141        C146   1.283       .  A
O142       Ni144   1.946       .  S
O142        C145   1.286       .  A
Ni143      Ni144   2.390       .  S
C145        C256   1.491       .  S
C146        C341   1.460       .  S
C147        C221   1.491       .  S
C148        C391   1.462       .  S
O149       Ni157   1.910       .  S
O149        C159   1.279       .  A
O150       Ni157   1.924       .  S
O150        C160   1.281       .  A
O151       Ni157   1.922       .  S
O151        C161   1.283       .  A
O152       Ni157   1.935       .  S
O152        C162   1.284       .  A
O153       Ni158   1.902       .  S
O153        C162   1.277       .  A
O154       Ni158   1.886       .  S
O154        C161   1.274       .  A
O155       Ni158   1.910       .  S
O155        C160   1.281       .  A
O156       Ni158   1.904       .  S
O156        C159   1.279       .  A
Ni157      Ni158   2.390       .  S
C159        C328   1.458       .  S
C160        C255   1.490       .  S
C161        C318   1.459       .  S
C162        C222   1.478       .  S
C163        C164   1.528       .  S
C163        C169   1.552       .  S
C163        C167   1.526       .  S
C163        C331   1.523       .  S
C164        H627   1.086   1_554  S
C164       C1077   1.365       .  D
C165        C166   1.547       .  S
C165       C1076   1.365       .  D
C165        C448   1.492       .  S
C166        C168   1.538       .  S
C166       C1082   1.530   1_545  S
C166        H172   1.109       .  S
C167       H1085   1.086       .  S
C167       C1080   1.354       .  D
C168       C1079   1.354       .  D
C168        C308   1.470       .  S
C169        H174   1.085       .  S
C169        C170   1.372       .  D
C170       C1078   1.530       .  S
C170        C421   1.475       .  S
H171        C620   1.086       .  S
H173       C1079   1.086       .  S
O175       Ni183   1.908       .  S
O175        C185   1.279       .  A
O176       Ni183   1.896       .  S
O176        C186   1.277       .  A
O177       Ni183   1.927       .  S
O177        C187   1.283       .  A
O178       Ni183   1.910       .  S
O178        C188   1.281       .  A
O179       Ni184   1.921       .  S
O179        C188   1.280       .  A
O180       Ni184   1.934       .  S
O180        C187   1.283       .  A
O181       Ni184   1.930       .  S
O181        C186   1.284       .  A
O182       Ni184   1.944       .  S
O182        C185   1.286       .  A
Ni183      Ni184   2.386       .  S
C185        C223   1.495       .  S
C186        C298   1.474       .  S
C187        C258   1.491       .  S
C188        C311   1.469       .  S
C189        C190   1.529       .  S
C189        C195   1.541       .  S
C189        C193   1.534       .  S
C189        C441   1.522       .  S
C190        H197   1.086       .  S
C190        C191   1.355       .  D
C191        C192   1.534       .  S
C191        C431   1.463       .  S
C192        C196   1.530       .  S
C192        C194   1.542       .  S
C192        H198   1.109       .  S
C193        H655   1.083   1_554  S
C193        C194   1.362       .  D
C194        C321   1.478       .  S
C195        H200   1.086       .  S
C195        C196   1.369       .  D
C196        C301   1.476       .  S
H199        C649   1.083       .  S
N201        C206   1.351       .  A
N201        C205   1.354       .  A
N201        H233   1.040       .  S
N202        C209   1.355       .  A
N202       C1122   1.354       .  A
N203        C208   1.359       .  A
N203        C207   1.359       .  A
N203        H234   1.038       .  S
N204        C211   1.353       .  A
N204       C1124   1.355       .  A
C205        C213   1.384       .  A
C205        C221   1.410       .  A
C206        C222   1.409       .  A
C206        C214   1.386       .  A
C207        C215   1.390       .  A
C207        C224   1.427       .  A
C208        C223   1.423       .  A
C208        C216   1.385       .  A
C209        C221   1.419       .  A
C209        C217   1.383       .  A
C210       N1114   1.354   1_545  A
C210        C224   1.422       .  A
C210        C218   1.389       .  A
C211        C219   1.387       .  A
C211        C222   1.419       .  A
C212       N1116   1.355   1_545  A
C212        C220   1.387       .  A
C212        C223   1.418       .  A
C213        C214   1.374       .  A
C213        H225   1.082       .  S
C214        H226   1.083       .  S
C215        C216   1.361       .  A
C215        H227   1.078       .  S
C216        H228   1.078       .  S
C217       C1130   1.379       .  A
C217        H229   1.081       .  S
C218       C1129   1.379   1_545  A
C218        H230   1.081       .  S
C219       C1132   1.380       .  A
C219        H231   1.082       .  S
C220       C1131   1.380   1_545  A
C220        H232   1.082       .  S
N235        C240   1.356       .  A
N235        C239   1.357       .  A
N235        H267   1.039       .  S
N236        C243   1.353       .  A
N236        C244   1.354       .  A
N237        C242   1.354       .  A
N237        C241   1.355       .  A
N237        H268   1.040       .  S
N238        C245   1.355       .  A
N238        C246   1.353       .  A
C239        C247   1.388       .  A
C239        C255   1.420       .  A
C240        C256   1.421       .  A
C240        C248   1.387       .  A
C241        C249   1.383       .  A
C241        C258   1.414       .  A
C242        C257   1.415       .  A
C242        C250   1.386       .  A
C243        C255   1.420       .  A
C243        C251   1.388       .  A
C244        C258   1.418       .  A
C244        C252   1.385       .  A
C245        C253   1.386       .  A
C245        C256   1.418       .  A
C246        C254   1.387       .  A
C246        C257   1.419       .  A
C247        C248   1.358       .  A
C247        H259   1.078       .  S
C248        H260   1.078       .  S
C249        C250   1.378       .  A
C249        H261   1.082       .  S
C250        H262   1.082       .  S
C251        C252   1.378       .  A
C251        H263   1.081       .  S
C252        H264   1.082       .  S
C253        C254   1.381       .  A
C253        H265   1.082       .  S
C254        H266   1.082       .  S
O269       Ni277   1.897       .  S
O269        C279   1.278       .  A
O270       Ni277   1.895       .  S
O270        C280   1.278       .  A
O271       Ni277   1.883       .  S
O271        C281   1.275       .  A
O272       Ni277   1.916       .  S
O272        C282   1.280       .  A
O273       Ni278   1.945       .  S
O273        C282   1.286       .  A
O274       Ni278   1.938       .  S
O274        C281   1.286       .  A
O275       Ni278   1.934       .  S
O275        C280   1.282       .  A
O276       Ni278   1.917       .  S
O276        C279   1.281       .  A
Ni277      Ni278   2.385       .  S
C279        C368   1.462       .  S
C281        C411   1.485       .  S
O283       Ni291   1.943       .  S
O283        C293   1.286       .  A
O284       Ni291   1.926       .  S
O284        C294   1.285       .  A
O285       Ni291   1.931       .  S
O285        C295   1.282       .  A
O286       Ni291   1.918       .  S
O286        C296   1.280       .  A
O287       Ni292   1.900       .  S
O287        C296   1.280       .  A
O288       Ni292   1.923       .  S
O288        C295   1.282       .  A
O289       Ni292   1.896       .  S
O289        C294   1.277       .  A
O290       Ni292   1.906       .  S
O290        C293   1.279       .  A
Ni291      Ni292   2.386       .  S
C294        C398   1.481       .  S
C296        C361   1.468       .  S
C297        C298   1.406       .  A
C297        C302   1.394       .  A
C297        F304   1.358       .  S
C298        C299   1.409       .  A
C299        C300   1.400       .  A
C299        F306   1.358       .  S
C300        C301   1.403       .  A
C300        F305   1.358       .  S
C301        C302   1.405       .  A
C302        F303   1.357       .  S
C307        C308   1.399       .  A
C307        C312   1.396       .  A
C307        F314   1.358       .  S
C308        C309   1.410       .  A
C309        C310   1.401       .  A
C309        F316   1.358   1_545  S
C310        C311   1.401       .  A
C310        F315   1.358       .  S
C311        C312   1.407       .  A
C312        F313   1.358       .  S
C317        C318   1.396       .  A
C317        C322   1.393       .  A
C317        F324   1.358       .  S
C318        C319   1.407       .  A
C319        C776   1.392       .  A
C319        F326   1.359       .  S
C320        C321   1.402       .  A
C320        C775   1.392       .  A
C320        F325   1.357       .  S
C321        C778   1.415   1_554  A
C322        C777   1.415       .  A
C322        F323   1.358       .  S
C327        C328   1.403       .  A
C327        C788   1.398       .  A
C327        F334   1.358       .  S
C328        C329   1.395       .  A
C329        C330   1.390       .  A
C329        F336   1.358       .  S
C330        C787   1.418       .  A
C330       F1247   1.357       .  S
C331        C332   1.412   1_554  A
C331        C786   1.418   1_554  A
C332        C783   1.397       .  A
C332        F333   1.357       .  S
F335       C1242   1.357   1_545  S
C337        C338   1.403   1_554  A
C337        C798   1.388   1_554  A
C337        F344   1.357       .  S
C338        C795   1.416       .  A
C339        C340   1.398       .  A
C339        C794   1.416       .  A
C339       F1258   1.357       .  S
C340        C341   1.398       .  A
C340        F345   1.357       .  S
C341        C342   1.404       .  A
C342        C793   1.388       .  A
C342        F343   1.359       .  S
F346       C1251   1.357   1_545  S
C347        C348   1.407       .  A
C347        C352   1.398       .  A
C347        F354   1.358       .  S
C348        C349   1.409       .  A
C349        C350   1.403       .  A
C349        F356   1.358       .  S
C350        C351   1.404       .  A
C350        F355   1.357       .  S
C351        C352   1.405       .  A
C352       F1265   1.358       .  S
F353       C1264   1.358       .  S
C357        C358   1.398       .  A
C357        C362   1.392       .  A
C357        F364   1.358       .  S
C358        C359   1.406       .  A
C359        C360   1.400       .  A
C359        F366   1.358       .  S
C360        C361   1.403       .  A
C360        F365   1.358       .  S
C361        C362   1.408       .  A
C362        F363   1.359       .  S
C367        C368   1.402       .  A
C367        C828   1.391       .  A
C367        F374   1.359       .  S
C368        C369   1.395       .  A
C369        C370   1.397       .  A
C369        F376   1.358       .  S
C370        C371   1.425       .  A
C370        F375   1.355       .  S
C371        C828   1.412       .  A
C371        C565   1.527       .  S
C372        C823   1.391   1_554  A
C372        C827   1.412   1_554  A
C372        F373   1.357       .  S
C377        C378   1.399       .  A
C377        C382   1.403       .  A
C377        F384   1.358       .  S
C378        C379   1.399       .  A
C379        C380   1.386       .  A
C379        F386   1.359       .  S
C380        C381   1.414       .  A
C380        F385   1.358       .  S
C381        C382   1.422       .  A
C382        F383   1.355       .  S
C387        C392   1.394       .  A
C387        C844   1.413       .  A
C387        F394   1.358       .  S
C388        C389   1.403   1_554  A
C388        C843   1.413   1_554  A
C389        C846   1.399       .  A
C389        F396   1.358   1_556  S
C390        C391   1.405       .  A
C390        C845   1.399       .  A
C390        F395   1.356       .  S
C391        C392   1.397       .  A
C392        F393   1.358       .  S
C397        C398   1.408       .  A
C397        C402   1.398       .  A
C397        F404   1.358       .  S
C398        C399   1.410       .  A
C399        C400   1.396       .  A
C399        F406   1.358       .  S
C400        C401   1.407       .  A
C400        F405   1.354       .  S
C401        C402   1.408       .  A
C402        F403   1.358       .  S
C407        C408   1.396       .  A
C407        C868   1.389       .  A
C407        F414   1.359       .  S
C408        C865   1.404   1_554  A
C409        C410   1.403       .  A
C409        C864   1.404       .  A
C409        F416   1.358       .  S
C410        C411   1.411       .  A
C410        F415   1.358       .  S
C411        C412   1.416       .  A
C412        C863   1.389       .  A
C412        F869   1.358       .  S
F413        C868   1.358       .  S
C417        C418   1.406       .  A
C417        C422   1.399       .  A
C417        F424   1.358       .  S
C418        C419   1.403       .  A
C419        C420   1.394       .  A
C419        F426   1.358       .  S
C420        C421   1.405       .  A
C420       F1337   1.357       .  S
C421        C422   1.404       .  A
C422        F423   1.358       .  S
F425       C1332   1.357   1_545  S
C427        C428   1.400       .  A
C427        C432   1.399       .  A
C427        F434   1.357       .  S
C428        C429   1.406       .  A
C429        C430   1.393       .  A
C429        F436   1.358       .  S
C430        C431   1.399       .  A
C430        F435   1.358       .  S
C431        C432   1.408       .  A
C432        F433   1.358       .  S
C437        C438   1.409       .  A
C437        C898   1.387       .  A
C437        F900   1.359       .  S
C438        C439   1.405       .  A
C439        C440   1.396       .  A
C439        F446   1.358       .  S
C440        C897   1.414       .  A
C440        F445   1.356       .  S
C441        C442   1.408       .  A
C441        C896   1.414   1_554  A
C442        C893   1.387       .  A
C442        F443   1.359       .  S
F444        C893   1.359       .  S
C447        C452   1.399       .  A
C447        C904   1.419       .  A
C447       F1366   1.357       .  S
C448        C449   1.405       .  A
C448        C903   1.419   1_554  A
C449        C906   1.397       .  A
C449        F456   1.357       .  S
C450        C451   1.407       .  A
C450        C905   1.397       .  A
C450        F455   1.358       .  S
C451        C452   1.397       .  A
C452        F453   1.358       .  S
F454       C1359   1.357       .  S
O457       Ni465   1.934       .  S
O457        C467   1.282       .  A
O458       Ni465   1.921       .  S
O458        C468   1.282       .  A
O459       Ni465   1.939       .  S
O459        C469   1.284       .  A
O460       Ni465   1.923       .  S
O460        C470   1.284       .  A
O461       Ni466   1.883       .  S
O461        C470   1.275       .  A
O462       Ni466   1.924       .  S
O462        C469   1.281       .  A
O463       Ni466   1.905       .  S
O463        C468   1.279       .  A
O464       Ni466   1.902       .  S
O464        C467   1.280       .  A
Ni465      Ni466   2.387       .  S
C467        C525   1.490       .  S
C468        C907   1.469       .  S
C469        C491   1.492       .  S
C470        C894   1.476       .  S
N471        C476   1.354   1_455  A
N471        C475   1.355       .  A
N471        H503   1.041       .  S
N472        C479   1.353       .  A
N472       C1392   1.353   1_545  A
N473        C478   1.357   1_455  A
N473        C477   1.358       .  A
N473        H504   1.039       .  S
N474        C481   1.354       .  A
N474       C1394   1.355   1_545  A
C475        C483   1.383       .  A
C475        C491   1.414       .  A
C476        C492   1.414       .  A
C476        C484   1.384       .  A
C477        C485   1.388       .  A
C477        C494   1.422       .  A
C478        C493   1.421       .  A
C478        C486   1.387       .  A
C479        C491   1.415       .  A
C479        C487   1.384       .  A
C480       N1384   1.353       .  A
C480        C494   1.420       .  A
C480        C488   1.389       .  A
C481        C489   1.386       .  A
C481        C492   1.420       .  A
C482       N1386   1.355       .  A
C482        C490   1.387       .  A
C482        C493   1.420       .  A
C483        C484   1.380   1_455  A
C483        H495   1.082       .  S
C484        H496   1.083       .  S
C485        C486   1.361   1_455  A
C485        H497   1.078       .  S
C486        H498   1.078       .  S
C487       C1400   1.378   1_545  A
C487        H499   1.082       .  S
C488       C1399   1.378       .  A
C488        H500   1.081       .  S
C489       C1402   1.382   1_545  A
C489        H501   1.082       .  S
C490       C1401   1.382       .  A
C490        H502   1.082       .  S
C492        C738   1.491       .  S
C493        C749   1.493       .  S
C494        C550   1.491       .  S
N505        C510   1.357   1_455  A
N505        C509   1.356       .  A
N505        H537   1.034       .  S
N506        C513   1.355       .  A
N506        C514   1.354       .  A
N507        C512   1.355   1_455  A
N507        C511   1.354       .  A
N507        H538   1.039       .  S
N508        C515   1.354       .  A
N508        C516   1.352       .  A
C509        C517   1.387       .  A
C509        C525   1.420       .  A
C510        C526   1.421       .  A
C510        C518   1.387       .  A
C511        C519   1.386       .  A
C511        C528   1.415       .  A
C512        C527   1.413       .  A
C512        C520   1.384       .  A
C513        C525   1.422       .  A
C513        C521   1.387       .  A
C514        C528   1.420       .  A
C514        C522   1.386       .  A
C515        C523   1.386       .  A
C515        C526   1.418       .  A
C516        C524   1.386       .  A
C516        C527   1.418       .  A
C517        C518   1.348   1_455  A
C517        H529   1.077       .  S
C518        H530   1.077       .  S
C519        C520   1.376   1_455  A
C519        H531   1.082       .  S
C520        H532   1.082       .  S
C521        C522   1.382       .  A
C521        H533   1.082       .  S
C522        H534   1.082       .  S
C523        C524   1.378       .  A
C523        H535   1.081       .  S
C524        H536   1.081       .  S
C526        C736   1.490       .  S
C527        C751   1.487       .  S
C528        C552   1.487       .  S
O539       Ni547   1.904       .  S
O539        C549   1.280       .  A
O540       Ni547   1.904       .  S
O540        C550   1.279       .  A
O541       Ni547   1.893       .  S
O541        C551   1.276       .  A
O542       Ni547   1.918       .  S
O542        C552   1.280       .  A
O543       Ni548   1.937       .  S
O543        C552   1.284       .  A
O544       Ni548   1.928       .  S
O544        C551   1.284       .  A
O545       Ni548   1.931       .  S
O545        C550   1.283       .  A
O546       Ni548   1.915       .  S
O546        C549   1.279       .  A
Ni547      Ni548   2.390       .  S
C549        C884   1.463       .  S
C551        C874   1.466       .  S
C553        C554   1.533       .  S
C553        C559   1.545       .  S
C553        C557   1.525       .  S
C553        C837   1.527       .  S
C554        H561   1.083       .  S
C554        C555   1.370       .  D
C555        C556   1.550       .  S
C555        C857   1.488       .  S
C556        C560   1.529       .  S
C556        C558   1.536       .  S
C556        H562   1.110       .  S
C557        H563   1.087       .  S
C557        C558   1.357       .  D
C558        C844   1.481       .  S
C559        H564   1.086       .  S
C559        C560   1.367       .  D
C560        C864   1.469       .  S
C565        C566   1.524       .  S
C565        C571   1.553       .  S
C565        C569   1.537       .  S
C566        H573   1.088       .  S
C566       C1479   1.354   1_545  D
C567        C568   1.529       .  S
C567       C1478   1.354       .  D
C567        C814   1.464       .  S
C568       C1484   1.529       .  S
C568        C570   1.543       .  S
C568        H574   1.109       .  S
C569       C1482   1.364   1_545  D
C570       C1481   1.364       .  D
C570        C794   1.481       .  S
C571        H576   1.085       .  S
C571        C572   1.372       .  D
C572       C1480   1.529   1_545  S
C572        C807   1.480       .  S
O577       Ni585   1.913       .  S
O577        C587   1.279       .  A
O578       Ni585   1.933       .  S
O578        C588   1.283       .  A
O579       Ni585   1.938       .  S
O579        C589   1.286       .  A
O580       Ni585   1.940       .  S
O580        C590   1.285       .  A
O581       Ni586   1.913       .  S
O581        C590   1.279       .  A
O582       Ni586   1.896       .  S
O582        C589   1.276       .  A
O583       Ni586   1.908       .  S
O583        C588   1.280       .  A
O584       Ni586   1.904       .  S
O584        C587   1.281       .  A
Ni585      Ni586   2.388       .  S
C587        C834   1.465       .  S
C588        C680   1.496       .  S
C589        C804   1.478       .  S
C590        C713   1.486       .  S
O591       Ni599   1.897       .  S
O591        C601   1.277       .  A
O592       Ni599   1.886       .  S
O592        C602   1.275       .  A
O593       Ni599   1.932       .  S
O593        C603   1.284       .  A
O594       Ni599   1.908       .  S
O594        C604   1.280       .  A
O595       Ni600   1.920       .  S
O595        C604   1.279       .  A
O596       Ni600   1.928       .  S
O596        C603   1.281       .  A
O597       Ni600   1.927       .  S
O597        C602   1.283       .  A
O598       Ni600   1.946       .  S
O598        C601   1.286       .  A
Ni599      Ni600   2.390       .  S
C601        C712   1.491       .  S
C602        C797   1.460       .  S
C603        C677   1.491       .  S
C604        C847   1.462       .  S
O605       Ni613   1.910       .  S
O605        C615   1.279       .  A
O606       Ni613   1.925       .  S
O606        C616   1.281       .  A
O607       Ni613   1.921       .  S
O607        C617   1.283       .  A
O608       Ni613   1.935       .  S
O608        C618   1.284       .  A
O609       Ni614   1.902       .  S
O609        C618   1.277       .  A
O610       Ni614   1.886       .  S
O610        C617   1.274       .  A
O611       Ni614   1.910       .  S
O611        C616   1.281       .  A
O612       Ni614   1.904       .  S
O612        C615   1.279       .  A
Ni613      Ni614   2.390       .  S
C615        C784   1.458       .  S
C616        C711   1.490       .  S
C617        C774   1.459       .  S
C618        C678   1.477       .  S
C619        C620   1.528       .  S
C619        C625   1.552       .  S
C619        C623   1.527       .  S
C619        C787   1.523       .  S
C620       C1533   1.365       .  D
C621        C622   1.547       .  S
C621       C1532   1.365       .  D
C621        C904   1.493       .  S
C622       C1538   1.530   1_545  S
C622        C624   1.538       .  S
C622        H628   1.109       .  S
C623       H1541   1.086       .  S
C623       C1536   1.354       .  D
C624       C1535   1.354       .  D
C624        C764   1.470       .  S
C625        H630   1.085       .  S
C625        C626   1.372       .  D
C626       C1534   1.530       .  S
C626        C877   1.475       .  S
H629       C1535   1.086       .  S
O631       Ni639   1.908       .  S
O631        C641   1.279       .  A
O632       Ni639   1.896       .  S
O632        C642   1.277       .  A
O633       Ni639   1.927       .  S
O633        C643   1.283       .  A
O634       Ni639   1.910       .  S
O634        C644   1.281       .  A
O635       Ni640   1.921       .  S
O635        C644   1.280       .  A
O636       Ni640   1.934       .  S
O636        C643   1.283       .  A
O637       Ni640   1.930       .  S
O637        C642   1.284       .  A
O638       Ni640   1.944       .  S
O638        C641   1.286       .  A
Ni639      Ni640   2.386       .  S
C641        C679   1.495       .  S
C642        C754   1.474       .  S
C643        C714   1.491       .  S
C644        C767   1.469       .  S
C645        C646   1.529       .  S
C645        C651   1.541       .  S
C645        C649   1.534       .  S
C645        C897   1.522       .  S
C646        H653   1.086       .  S
C646        C647   1.355       .  D
C647        C648   1.534       .  S
C647        C887   1.463       .  S
C648        C652   1.530       .  S
C648        C650   1.542       .  S
C648        H654   1.109       .  S
C649        C650   1.362       .  D
C650        C777   1.478       .  S
C651        H656   1.086       .  S
C651        C652   1.369       .  D
C652        C757   1.476       .  S
N657        C662   1.351       .  A
N657        C661   1.354       .  A
N657        H689   1.040       .  S
N658        C665   1.355       .  A
N658       C1578   1.354       .  A
N659        C664   1.359       .  A
N659        C663   1.359       .  A
N659        H690   1.038       .  S
N660        C667   1.353       .  A
N660       C1580   1.355       .  A
C661        C669   1.384       .  A
C661        C677   1.410       .  A
C662        C678   1.409       .  A
C662        C670   1.386       .  A
C663        C671   1.390       .  A
C663        C680   1.427       .  A
C664        C679   1.423       .  A
C664        C672   1.385       .  A
C665        C677   1.419       .  A
C665        C673   1.383       .  A
C666       N1570   1.354   1_545  A
C666        C680   1.422       .  A
C666        C674   1.389       .  A
C667        C675   1.387       .  A
C667        C678   1.418       .  A
C668       N1572   1.355   1_545  A
C668        C676   1.387       .  A
C668        C679   1.418       .  A
C669        C670   1.374       .  A
C669        H681   1.082       .  S
C670        H682   1.083       .  S
C671        C672   1.361       .  A
C671        H683   1.078       .  S
C672        H684   1.078       .  S
C673       C1586   1.379       .  A
C673        H685   1.081       .  S
C674       C1585   1.379   1_545  A
C674        H686   1.081       .  S
C675       C1588   1.380       .  A
C675        H687   1.082       .  S
C676       C1587   1.380   1_545  A
C676        H688   1.082       .  S
N691        C696   1.356       .  A
N691        C695   1.357       .  A
N691        H723   1.039       .  S
N692        C699   1.354       .  A
N692        C700   1.354       .  A
N693        C698   1.354       .  A
N693        C697   1.355       .  A
N693        H724   1.040       .  S
N694        C701   1.355       .  A
N694        C702   1.353       .  A
C695        C703   1.388       .  A
C695        C711   1.420       .  A
C696        C712   1.421       .  A
C696        C704   1.387       .  A
C697        C705   1.383       .  A
C697        C714   1.414       .  A
C698        C713   1.415       .  A
C698        C706   1.386       .  A
C699        C711   1.420       .  A
C699        C707   1.388       .  A
C700        C714   1.418       .  A
C700        C708   1.385       .  A
C701        C709   1.386       .  A
C701        C712   1.418       .  A
C702        C710   1.387       .  A
C702        C713   1.419       .  A
C703        C704   1.358       .  A
C703        H715   1.078       .  S
C704        H716   1.078       .  S
C705        C706   1.378       .  A
C705        H717   1.082       .  S
C706        H718   1.082       .  S
C707        C708   1.378       .  A
C707        H719   1.081       .  S
C708        H720   1.082       .  S
C709        C710   1.381       .  A
C709        H721   1.082       .  S
C710        H722   1.082       .  S
O725       Ni733   1.896       .  S
O725        C735   1.278       .  A
O726       Ni733   1.895       .  S
O726        C736   1.278       .  A
O727       Ni733   1.883       .  S
O727        C737   1.275       .  A
O728       Ni733   1.916       .  S
O728        C738   1.280       .  A
O729       Ni734   1.945       .  S
O729        C738   1.286       .  A
O730       Ni734   1.938       .  S
O730        C737   1.287       .  A
O731       Ni734   1.934       .  S
O731        C736   1.282       .  A
O732       Ni734   1.917       .  S
O732        C735   1.281       .  A
Ni733      Ni734   2.385       .  S
C735        C824   1.462       .  S
C737        C867   1.485       .  S
O739       Ni747   1.943       .  S
O739        C749   1.286       .  A
O740       Ni747   1.926       .  S
O740        C750   1.285       .  A
O741       Ni747   1.931       .  S
O741        C751   1.282       .  A
O742       Ni747   1.918       .  S
O742        C752   1.280       .  A
O743       Ni748   1.900       .  S
O743        C752   1.280       .  A
O744       Ni748   1.923       .  S
O744        C751   1.282       .  A
O745       Ni748   1.896       .  S
O745        C750   1.277       .  A
O746       Ni748   1.906       .  S
O746        C749   1.278       .  A
Ni747      Ni748   2.386       .  S
C750        C854   1.481       .  S
C752        C817   1.467       .  S
C753        C754   1.406       .  A
C753        C758   1.394       .  A
C753        F760   1.358       .  S
C754        C755   1.409       .  A
C755        C756   1.400       .  A
C755        F762   1.358       .  S
C756        C757   1.403       .  A
C756        F761   1.358       .  S
C757        C758   1.405       .  A
C758        F759   1.357       .  S
C763        C764   1.399       .  A
C763        C768   1.396       .  A
C763        F770   1.358       .  S
C764        C765   1.410       .  A
C765        C766   1.401       .  A
C765        F772   1.358   1_545  S
C766        C767   1.401       .  A
C766        F771   1.358       .  S
C767        C768   1.407       .  A
C768        F769   1.358       .  S
C773        C774   1.396       .  A
C773        C778   1.393       .  A
C773        F780   1.358       .  S
C774        C775   1.407   1_556  A
C775        F782   1.359       .  S
C776        C777   1.402       .  A
C776        F781   1.357       .  S
C778        F779   1.358       .  S
C783        C784   1.403       .  A
C783        F790   1.358       .  S
C784        C785   1.395       .  A
C785        C786   1.390       .  A
C785        F792   1.358       .  S
C786       F1703   1.357   1_556  S
C787        C788   1.412       .  A
C788        F789   1.357       .  S
F791       C1698   1.357   1_544  S
C793        C794   1.403       .  A
C793        F800   1.357       .  S
C795        C796   1.398       .  A
C795       F1714   1.357       .  S
C796        C797   1.398       .  A
C796        F801   1.357       .  S
C797        C798   1.404       .  A
C798        F799   1.359   1_556  S
F802       C1707   1.357   1_545  S
C803        C804   1.407       .  A
C803        C808   1.397       .  A
C803        F810   1.358       .  S
C804        C805   1.409       .  A
C805        C806   1.403       .  A
C805        F812   1.358       .  S
C806        C807   1.404       .  A
C806        F811   1.357       .  S
C807        C808   1.405       .  A
C808       F1721   1.358       .  S
F809       C1720   1.358       .  S
C813        C814   1.398       .  A
C813        C818   1.392       .  A
C813        F820   1.358       .  S
C814        C815   1.406       .  A
C815        C816   1.400       .  A
C815        F822   1.358       .  S
C816        C817   1.403       .  A
C816        F821   1.358       .  S
C817        C818   1.408       .  A
C818        F819   1.359       .  S
C823        C824   1.402       .  A
C823        F830   1.359   1_556  S
C824        C825   1.395       .  A
C825        C826   1.397       .  A
C825        F832   1.358       .  S
C826        C827   1.425       .  A
C826        F831   1.355       .  S
C828        F829   1.357       .  S
C833        C834   1.399       .  A
C833        C838   1.402       .  A
C833        F840   1.358       .  S
C834        C835   1.399       .  A
C835        C836   1.387       .  A
C835        F842   1.359       .  S
C836        C837   1.414       .  A
C836        F841   1.358       .  S
C837        C838   1.422       .  A
C838        F839   1.355       .  S
C843        C848   1.394       .  A
C843        F850   1.358       .  S
C844        C845   1.403       .  A
C845        F852   1.358       .  S
C846        C847   1.405       .  A
C846        F851   1.356       .  S
C847        C848   1.396       .  A
C848        F849   1.358       .  S
C853        C854   1.408       .  A
C853        C858   1.398       .  A
C853        F860   1.358       .  S
C854        C855   1.410       .  A
C855        C856   1.396       .  A
C855        F862   1.358       .  S
C856        C857   1.407       .  A
C856        F861   1.354       .  S
C857        C858   1.408       .  A
C858        F859   1.358       .  S
C863        C864   1.396       .  A
C863        F870   1.359       .  S
C865        C866   1.403       .  A
C865        F872   1.358       .  S
C866        C867   1.411       .  A
C866        F871   1.358       .  S
C867        C868   1.416   1_556  A
C873        C874   1.406       .  A
C873        C878   1.400       .  A
C873        F880   1.358       .  S
C874        C875   1.403       .  A
C875        C876   1.394       .  A
C875        F882   1.358       .  S
C876        C877   1.405       .  A
C876       F1793   1.357       .  S
C877        C878   1.404       .  A
C878        F879   1.358       .  S
F881       C1788   1.357   1_545  S
C883        C884   1.400       .  A
C883        C888   1.399       .  A
C883        F890   1.357       .  S
C884        C885   1.406       .  A
C885        C886   1.393       .  A
C885        F892   1.358       .  S
C886        C887   1.399       .  A
C886        F891   1.358       .  S
C887        C888   1.407       .  A
C888        F889   1.358       .  S
C893        C894   1.409   1_554  A
C894        C895   1.405       .  A
C895        C896   1.396       .  A
C895        F902   1.358       .  S
C896        F901   1.356       .  S
C897        C898   1.408       .  A
C898        F899   1.359       .  S
C903        C908   1.399       .  A
C903       F1822   1.357       .  S
C904        C905   1.405       .  A
C905        F912   1.357       .  S
C906        C907   1.407   1_554  A
C906        F911   1.358       .  S
C907        C908   1.397       .  A
C908        F909   1.358       .  S
F910       C1815   1.357       .  S
O913       Ni921   1.933       .  S
O913        C923   1.282       .  A
O914       Ni921   1.921       .  S
O914        C924   1.282       .  A
O915       Ni921   1.939       .  S
O915        C925   1.284       .  A
O916       Ni921   1.922       .  S
O916        C926   1.284       .  A
O917       Ni922   1.883       .  S
O917        C926   1.275       .  A
O918       Ni922   1.924       .  S
O918        C925   1.281       .  A
O919       Ni922   1.905       .  S
O919        C924   1.279       .  A
O920       Ni922   1.902       .  S
O920        C923   1.280       .  A
Ni921      Ni922   2.387       .  S
C923        C981   1.490       .  S
C924       C1363   1.469       .  S
C925        C947   1.492       .  S
C926       C1350   1.475       .  S
N927        C932   1.354   1_455  A
N927        C931   1.355       .  A
N927        H959   1.041       .  S
N928        C935   1.354       .  A
N929        C934   1.357   1_455  A
N929        C933   1.358       .  A
N929        H960   1.039       .  S
N930        C937   1.354       .  A
C931        C939   1.383       .  A
C931        C947   1.414       .  A
C932        C948   1.414       .  A
C932        C940   1.384       .  A
C933        C941   1.388       .  A
C933        C950   1.422       .  A
C934        C949   1.421       .  A
C934        C942   1.387       .  A
C935        C947   1.415       .  A
C935        C943   1.384       .  A
C936        C950   1.420       .  A
C936        C944   1.389       .  A
C937        C945   1.386       .  A
C937        C948   1.420       .  A
C938        C946   1.387       .  A
C938        C949   1.420       .  A
C939        C940   1.380   1_455  A
C939        H951   1.082       .  S
C940        H952   1.083       .  S
C941        C942   1.361   1_455  A
C941        H953   1.078       .  S
C942        H954   1.078       .  S
C943        H955   1.082       .  S
C944        H956   1.081       .  S
C945        H957   1.082       .  S
C946        H958   1.082       .  S
C948       C1194   1.491       .  S
C949       C1205   1.493       .  S
C950       C1006   1.491       .  S
N961        C966   1.357   1_455  A
N961        C965   1.356       .  A
N961        H993   1.034       .  S
N962        C969   1.355       .  A
N962        C970   1.354       .  A
N963        C968   1.355   1_455  A
N963        C967   1.354       .  A
N963        H994   1.039       .  S
N964        C971   1.354       .  A
N964        C972   1.352       .  A
C965        C973   1.387       .  A
C965        C981   1.420       .  A
C966        C982   1.421       .  A
C966        C974   1.387       .  A
C967        C975   1.386       .  A
C967        C984   1.415       .  A
C968        C983   1.413       .  A
C968        C976   1.384       .  A
C969        C981   1.422       .  A
C969        C977   1.387       .  A
C970        C984   1.420       .  A
C970        C978   1.386       .  A
C971        C979   1.386       .  A
C971        C982   1.418       .  A
C972        C980   1.386       .  A
C972        C983   1.418       .  A
C973        C974   1.348   1_455  A
C973        H985   1.077       .  S
C974        H986   1.077       .  S
C975        C976   1.376   1_455  A
C975        H987   1.082       .  S
C976        H988   1.082       .  S
C977        C978   1.382       .  A
C977        H989   1.082       .  S
C978        H990   1.082       .  S
C979        C980   1.378       .  A
C979        H991   1.081       .  S
C980        H992   1.081       .  S
C982       C1192   1.490       .  S
C983       C1207   1.487       .  S
C984       C1008   1.487       .  S
O995      Ni1003   1.904       .  S
O995       C1005   1.280       .  A
O996      Ni1003   1.904       .  S
O996       C1006   1.279       .  A
O997      Ni1003   1.893       .  S
O997       C1007   1.276       .  A
O998      Ni1003   1.918       .  S
O998       C1008   1.280       .  A
O999      Ni1004   1.937       .  S
O999       C1008   1.284       .  A
O1000     Ni1004   1.928       .  S
O1000      C1007   1.284       .  A
O1001     Ni1004   1.931       .  S
O1001      C1006   1.283       .  A
O1002     Ni1004   1.915       .  S
O1002      C1005   1.279       .  A
Ni1003    Ni1004   2.390       .  S
C1005      C1340   1.463       .  S
C1007      C1330   1.466       .  S
C1009      C1010   1.533       .  S
C1009      C1015   1.545       .  S
C1009      C1013   1.525       .  S
C1009      C1293   1.527       .  S
C1010      H1017   1.083       .  S
C1010      C1011   1.370       .  D
C1011      C1012   1.550       .  S
C1011      C1313   1.488       .  S
C1012      C1016   1.529       .  S
C1012      C1014   1.536       .  S
C1012      H1018   1.110       .  S
C1013      H1019   1.087       .  S
C1013      C1014   1.357       .  D
C1014      C1300   1.481       .  S
C1015      H1020   1.086       .  S
C1015      C1016   1.367       .  D
C1016      C1320   1.469       .  S
C1021      C1022   1.523       .  S
C1021      C1027   1.553       .  S
C1021      C1025   1.537   1_554  S
C1021      C1739   1.527   1_554  S
C1022      H1029   1.088       .  S
C1023      C1024   1.529       .  S
C1023      C1270   1.463       .  S
C1024      C1026   1.543       .  S
C1024      H1030   1.109       .  S
C1025      H1487   1.080       .  S
C1026      C1250   1.481   1_554  S
C1027      H1032   1.085       .  S
C1027      C1028   1.372       .  D
C1028      C1263   1.480       .  S
H1031      C1481   1.080       .  S
O1033     Ni1041   1.913       .  S
O1033      C1043   1.279       .  A
O1034     Ni1041   1.933       .  S
O1034      C1044   1.283       .  A
O1035     Ni1041   1.938       .  S
O1035      C1045   1.286       .  A
O1036     Ni1041   1.940       .  S
O1036      C1046   1.285       .  A
O1037     Ni1042   1.913       .  S
O1037      C1046   1.279       .  A
O1038     Ni1042   1.897       .  S
O1038      C1045   1.276       .  A
O1039     Ni1042   1.907       .  S
O1039      C1044   1.280       .  A
O1040     Ni1042   1.904       .  S
O1040      C1043   1.281       .  A
Ni1041    Ni1042   2.388       .  S
C1043      C1290   1.465       .  S
C1044      C1136   1.496       .  S
C1045      C1260   1.477       .  S
C1046      C1169   1.486       .  S
O1047     Ni1055   1.897       .  S
O1047      C1057   1.277       .  A
O1048     Ni1055   1.887       .  S
O1048      C1058   1.275       .  A
O1049     Ni1055   1.932       .  S
O1049      C1059   1.284       .  A
O1050     Ni1055   1.908       .  S
O1050      C1060   1.280       .  A
O1051     Ni1056   1.921       .  S
O1051      C1060   1.279       .  A
O1052     Ni1056   1.928       .  S
O1052      C1059   1.281       .  A
O1053     Ni1056   1.927       .  S
O1053      C1058   1.283       .  A
O1054     Ni1056   1.946       .  S
O1054      C1057   1.286       .  A
Ni1055    Ni1056   2.390       .  S
C1057      C1168   1.491       .  S
C1058      C1253   1.460       .  S
C1059      C1133   1.491       .  S
C1060      C1303   1.462       .  S
O1061     Ni1069   1.910       .  S
O1061      C1071   1.279       .  A
O1062     Ni1069   1.924       .  S
O1062      C1072   1.281       .  A
O1063     Ni1069   1.922       .  S
O1063      C1073   1.283       .  A
O1064     Ni1069   1.935       .  S
O1064      C1074   1.284       .  A
O1065     Ni1070   1.902       .  S
O1065      C1074   1.277       .  A
O1066     Ni1070   1.886       .  S
O1066      C1073   1.274       .  A
O1067     Ni1070   1.910       .  S
O1067      C1072   1.281       .  A
O1068     Ni1070   1.904       .  S
O1068      C1071   1.279       .  A
Ni1069    Ni1070   2.390       .  S
C1071      C1240   1.458       .  S
C1072      C1167   1.490       .  S
C1073      C1230   1.459       .  S
C1074      C1134   1.478       .  S
C1075      C1076   1.528   1_565  S
C1075      C1081   1.552       .  S
C1075      C1079   1.526   1_565  S
C1075      C1243   1.523       .  S
C1076      H1539   1.086   1_554  S
C1077      C1078   1.547       .  S
C1077      C1360   1.492       .  S
C1078      C1080   1.538       .  S
C1078      H1084   1.109       .  S
C1080      C1220   1.470       .  S
C1081      H1086   1.085       .  S
C1081      C1082   1.372       .  D
C1082      C1333   1.475       .  S
H1083      C1532   1.086       .  S
O1087     Ni1095   1.908       .  S
O1087      C1097   1.279       .  A
O1088     Ni1095   1.896       .  S
O1088      C1098   1.277       .  A
O1089     Ni1095   1.927       .  S
O1089      C1099   1.283       .  A
O1090     Ni1095   1.910       .  S
O1090      C1100   1.281       .  A
O1091     Ni1096   1.921       .  S
O1091      C1100   1.280       .  A
O1092     Ni1096   1.934       .  S
O1092      C1099   1.283       .  A
O1093     Ni1096   1.930       .  S
O1093      C1098   1.284       .  A
O1094     Ni1096   1.944       .  S
O1094      C1097   1.286       .  A
Ni1095    Ni1096   2.386       .  S
C1097      C1135   1.495       .  S
C1098      C1210   1.474       .  S
C1099      C1170   1.491       .  S
C1100      C1223   1.469       .  S
C1101      C1102   1.529       .  S
C1101      C1107   1.541       .  S
C1101      C1105   1.534       .  S
C1101      C1353   1.522       .  S
C1102      H1109   1.086       .  S
C1102      C1103   1.355       .  D
C1103      C1104   1.534       .  S
C1103      C1343   1.463       .  S
C1104      C1108   1.530       .  S
C1104      C1106   1.542       .  S
C1104      H1110   1.109       .  S
C1105      H1567   1.083   1_554  S
C1105      C1106   1.362       .  D
C1106      C1233   1.478       .  S
C1107      H1112   1.086       .  S
C1107      C1108   1.369       .  D
C1108      C1213   1.476       .  S
H1111      C1561   1.083       .  S
N1113      C1118   1.351       .  A
N1113      C1117   1.354       .  A
N1113      H1145   1.040       .  S
N1114      C1121   1.355       .  A
N1115      C1120   1.359       .  A
N1115      C1119   1.359       .  A
N1115      H1146   1.038       .  S
N1116      C1123   1.353       .  A
C1117      C1125   1.384       .  A
C1117      C1133   1.410       .  A
C1118      C1134   1.409       .  A
C1118      C1126   1.386       .  A
C1119      C1127   1.390       .  A
C1119      C1136   1.427       .  A
C1120      C1135   1.423       .  A
C1120      C1128   1.385       .  A
C1121      C1133   1.419       .  A
C1121      C1129   1.383       .  A
C1122      C1136   1.423       .  A
C1122      C1130   1.389       .  A
C1123      C1131   1.387       .  A
C1123      C1134   1.419       .  A
C1124      C1132   1.387       .  A
C1124      C1135   1.418       .  A
C1125      C1126   1.374       .  A
C1125      H1137   1.082       .  S
C1126      H1138   1.083       .  S
C1127      C1128   1.361       .  A
C1127      H1139   1.078       .  S
C1128      H1140   1.078       .  S
C1129      H1141   1.081       .  S
C1130      H1142   1.081       .  S
C1131      H1143   1.082       .  S
C1132      H1144   1.082       .  S
N1147      C1152   1.356       .  A
N1147      C1151   1.357       .  A
N1147      H1179   1.039       .  S
N1148      C1155   1.353       .  A
N1148      C1156   1.354       .  A
N1149      C1154   1.354       .  A
N1149      C1153   1.355       .  A
N1149      H1180   1.040       .  S
N1150      C1157   1.355       .  A
N1150      C1158   1.353       .  A
C1151      C1159   1.388       .  A
C1151      C1167   1.420       .  A
C1152      C1168   1.421       .  A
C1152      C1160   1.387       .  A
C1153      C1161   1.383       .  A
C1153      C1170   1.414       .  A
C1154      C1169   1.415       .  A
C1154      C1162   1.386       .  A
C1155      C1167   1.420       .  A
C1155      C1163   1.388       .  A
C1156      C1170   1.418       .  A
C1156      C1164   1.385       .  A
C1157      C1165   1.386       .  A
C1157      C1168   1.418       .  A
C1158      C1166   1.387       .  A
C1158      C1169   1.419       .  A
C1159      C1160   1.358       .  A
C1159      H1171   1.078       .  S
C1160      H1172   1.078       .  S
C1161      C1162   1.378       .  A
C1161      H1173   1.082       .  S
C1162      H1174   1.082       .  S
C1163      C1164   1.378       .  A
C1163      H1175   1.081       .  S
C1164      H1176   1.082       .  S
C1165      C1166   1.381       .  A
C1165      H1177   1.082       .  S
C1166      H1178   1.082       .  S
O1181     Ni1189   1.897       .  S
O1181      C1191   1.278       .  A
O1182     Ni1189   1.895       .  S
O1182      C1192   1.278       .  A
O1183     Ni1189   1.883       .  S
O1183      C1193   1.275       .  A
O1184     Ni1189   1.916       .  S
O1184      C1194   1.280       .  A
O1185     Ni1190   1.945       .  S
O1185      C1194   1.286       .  A
O1186     Ni1190   1.938       .  S
O1186      C1193   1.286       .  A
O1187     Ni1190   1.934       .  S
O1187      C1192   1.282       .  A
O1188     Ni1190   1.917       .  S
O1188      C1191   1.281       .  A
Ni1189    Ni1190   2.385       .  S
C1191      C1280   1.462       .  S
C1193      C1323   1.485       .  S
O1195     Ni1203   1.943       .  S
O1195      C1205   1.286       .  A
O1196     Ni1203   1.926       .  S
O1196      C1206   1.285       .  A
O1197     Ni1203   1.931       .  S
O1197      C1207   1.282       .  A
O1198     Ni1203   1.918       .  S
O1198      C1208   1.280       .  A
O1199     Ni1204   1.900       .  S
O1199      C1208   1.280       .  A
O1200     Ni1204   1.923       .  S
O1200      C1207   1.282       .  A
O1201     Ni1204   1.896       .  S
O1201      C1206   1.277       .  A
O1202     Ni1204   1.906       .  S
O1202      C1205   1.279       .  A
Ni1203    Ni1204   2.386       .  S
C1206      C1310   1.481       .  S
C1208      C1273   1.468       .  S
C1209      C1210   1.406       .  A
C1209      C1214   1.394       .  A
C1209      F1216   1.358       .  S
C1210      C1211   1.409       .  A
C1211      C1212   1.400       .  A
C1211      F1218   1.358       .  S
C1212      C1213   1.403       .  A
C1212      F1217   1.358       .  S
C1213      C1214   1.405       .  A
C1214      F1215   1.357       .  S
C1219      C1220   1.399       .  A
C1219      C1224   1.396       .  A
C1219      F1226   1.358       .  S
C1220      C1221   1.410       .  A
C1221      C1222   1.401       .  A
C1221      F1228   1.358       .  S
C1222      C1223   1.401       .  A
C1222      F1227   1.358       .  S
C1223      C1224   1.407       .  A
C1224      F1225   1.358       .  S
C1229      C1230   1.396       .  A
C1229      C1234   1.393       .  A
C1229      F1236   1.358       .  S
C1230      C1231   1.407       .  A
C1231      C1688   1.392       .  A
C1231      F1238   1.359       .  S
C1232      C1687   1.392       .  A
C1232      C1233   1.402       .  A
C1232      F1237   1.357       .  S
C1233      C1690   1.415   1_554  A
C1234      C1689   1.415       .  A
C1234      F1235   1.358       .  S
C1239      C1240   1.403       .  A
C1239      C1700   1.398       .  A
C1239      F1246   1.358       .  S
C1240      C1241   1.395       .  A
C1241      C1242   1.390       .  A
C1241      F1248   1.358       .  S
C1242      C1699   1.418       .  A
C1243      C1698   1.418   1_554  A
C1243      C1244   1.412   1_554  A
C1244      C1695   1.397       .  A
C1244      F1245   1.357       .  S
C1249      C1250   1.403   1_554  A
C1249      C1710   1.388   1_554  A
C1249      F1256   1.357       .  S
C1250      C1707   1.416       .  A
C1251      C1706   1.416       .  A
C1251      C1252   1.398       .  A
C1252      C1253   1.398       .  A
C1252      F1257   1.357       .  S
C1253      C1254   1.404       .  A
C1254      C1705   1.388       .  A
C1254      F1255   1.359       .  S
C1259      C1260   1.407       .  A
C1259      C1264   1.398       .  A
C1259      F1266   1.358       .  S
C1260      C1261   1.409       .  A
C1261      C1262   1.403       .  A
C1261      F1268   1.358       .  S
C1262      C1263   1.404       .  A
C1262      F1267   1.357       .  S
C1263      C1264   1.405       .  A
C1269      C1270   1.398       .  A
C1269      C1274   1.392       .  A
C1269      F1276   1.358       .  S
C1270      C1271   1.406       .  A
C1271      C1272   1.400       .  A
C1271      F1278   1.358   1_565  S
C1272      C1273   1.403       .  A
C1272      F1277   1.358       .  S
C1273      C1274   1.408       .  A
C1274      F1275   1.359       .  S
C1279      C1280   1.402       .  A
C1279      C1740   1.391       .  A
C1279      F1286   1.359       .  S
C1280      C1281   1.395       .  A
C1281      C1282   1.397       .  A
C1281      F1288   1.358       .  S
C1282      C1283   1.425       .  A
C1282      F1287   1.355       .  S
C1283      C1740   1.412       .  A
C1283      C1477   1.527       .  S
C1284      C1735   1.391   1_554  A
C1284      C1739   1.412   1_554  A
C1284      F1285   1.358       .  S
C1289      C1290   1.399       .  A
C1289      C1294   1.403       .  A
C1289      F1296   1.358       .  S
C1290      C1291   1.399       .  A
C1291      C1292   1.386       .  A
C1291      F1298   1.359       .  S
C1292      C1293   1.414       .  A
C1292      F1297   1.358       .  S
C1293      C1294   1.422       .  A
C1294      F1295   1.355       .  S
C1299      C1756   1.413       .  A
C1299      C1304   1.394       .  A
C1299      F1306   1.358       .  S
C1300      C1755   1.413   1_554  A
C1300      C1301   1.403   1_554  A
C1301      C1758   1.399       .  A
C1301      F1308   1.358   1_556  S
C1302      C1757   1.399       .  A
C1302      C1303   1.405       .  A
C1302      F1307   1.356       .  S
C1303      C1304   1.397       .  A
C1304      F1305   1.358       .  S
C1309      C1310   1.408       .  A
C1309      C1314   1.398       .  A
C1309      F1316   1.358       .  S
C1310      C1311   1.410       .  A
C1311      C1312   1.396       .  A
C1311      F1318   1.358       .  S
C1312      C1313   1.407       .  A
C1312      F1317   1.354       .  S
C1313      C1314   1.408       .  A
C1314      F1315   1.358       .  S
C1319      C1320   1.396       .  A
C1319      C1780   1.389       .  A
C1319      F1326   1.359       .  S
C1320      C1777   1.404   1_554  A
C1321      C1776   1.404       .  A
C1321      C1322   1.403       .  A
C1321      F1328   1.358       .  S
C1322      C1323   1.411       .  A
C1322      F1327   1.358       .  S
C1323      C1324   1.416       .  A
C1324      C1775   1.389       .  A
C1324      F1781   1.358       .  S
F1325      C1780   1.358       .  S
C1329      C1330   1.406       .  A
C1329      C1334   1.399       .  A
C1329      F1336   1.358       .  S
C1330      C1331   1.403       .  A
C1331      C1332   1.394       .  A
C1331      F1338   1.358       .  S
C1332      C1333   1.405       .  A
C1333      C1334   1.404       .  A
C1334      F1335   1.358       .  S
C1339      C1340   1.400       .  A
C1339      C1344   1.399       .  A
C1339      F1346   1.357       .  S
C1340      C1341   1.406       .  A
C1341      C1342   1.393       .  A
C1341      F1348   1.358       .  S
C1342      C1343   1.399       .  A
C1342      F1347   1.358       .  S
C1343      C1344   1.408       .  A
C1344      F1345   1.358       .  S
C1349      C1350   1.409       .  A
C1349      C1810   1.387       .  A
C1349      F1812   1.359       .  S
C1350      C1351   1.405       .  A
C1351      C1352   1.396       .  A
C1351      F1358   1.358       .  S
C1352      C1809   1.414       .  A
C1352      F1357   1.356       .  S
C1353      C1808   1.414   1_554  A
C1353      C1354   1.408       .  A
C1354      C1805   1.387       .  A
C1354      F1355   1.359       .  S
F1356      C1805   1.359       .  S
C1359      C1816   1.419       .  A
C1359      C1364   1.399       .  A
C1360      C1815   1.419   1_554  A
C1360      C1361   1.405       .  A
C1361      C1818   1.397       .  A
C1361      F1368   1.357       .  S
C1362      C1817   1.397       .  A
C1362      C1363   1.407       .  A
C1362      F1367   1.358       .  S
C1363      C1364   1.397       .  A
C1364      F1365   1.358       .  S
O1369     Ni1377   1.934       .  S
O1369      C1379   1.282       .  A
O1370     Ni1377   1.921       .  S
O1370      C1380   1.282       .  A
O1371     Ni1377   1.939       .  S
O1371      C1381   1.284       .  A
O1372     Ni1377   1.923       .  S
O1372      C1382   1.284       .  A
O1373     Ni1378   1.883       .  S
O1373      C1382   1.275       .  A
O1374     Ni1378   1.924       .  S
O1374      C1381   1.281       .  A
O1375     Ni1378   1.905       .  S
O1375      C1380   1.279       .  A
O1376     Ni1378   1.902       .  S
O1376      C1379   1.280       .  A
Ni1377    Ni1378   2.387       .  S
C1379      C1437   1.490       .  S
C1380      C1819   1.469       .  S
C1381      C1403   1.492       .  S
C1382      C1806   1.476       .  S
N1383      C1388   1.354   1_455  A
N1383      C1387   1.355       .  A
N1383      H1415   1.041       .  S
N1384      C1391   1.353       .  A
N1385      C1390   1.357   1_455  A
N1385      C1389   1.358       .  A
N1385      H1416   1.039       .  S
N1386      C1393   1.354       .  A
C1387      C1395   1.383       .  A
C1387      C1403   1.414       .  A
C1388      C1404   1.414       .  A
C1388      C1396   1.384       .  A
C1389      C1397   1.388       .  A
C1389      C1406   1.422       .  A
C1390      C1405   1.421       .  A
C1390      C1398   1.387       .  A
C1391      C1403   1.415       .  A
C1391      C1399   1.384       .  A
C1392      C1406   1.420       .  A
C1392      C1400   1.389       .  A
C1393      C1401   1.386       .  A
C1393      C1404   1.420       .  A
C1394      C1402   1.387       .  A
C1394      C1405   1.420       .  A
C1395      C1396   1.380   1_455  A
C1395      H1407   1.082       .  S
C1396      H1408   1.083       .  S
C1397      C1398   1.361   1_455  A
C1397      H1409   1.078       .  S
C1398      H1410   1.078       .  S
C1399      H1411   1.082       .  S
C1400      H1412   1.081       .  S
C1401      H1413   1.082       .  S
C1402      H1414   1.082       .  S
C1404      C1650   1.491       .  S
C1405      C1661   1.493       .  S
C1406      C1462   1.491       .  S
N1417      C1422   1.357   1_455  A
N1417      C1421   1.356       .  A
N1417      H1449   1.034       .  S
N1418      C1425   1.355       .  A
N1418      C1426   1.354       .  A
N1419      C1424   1.355   1_455  A
N1419      C1423   1.354       .  A
N1419      H1450   1.039       .  S
N1420      C1427   1.354       .  A
N1420      C1428   1.352       .  A
C1421      C1429   1.387       .  A
C1421      C1437   1.420       .  A
C1422      C1438   1.421       .  A
C1422      C1430   1.387       .  A
C1423      C1431   1.386       .  A
C1423      C1440   1.415       .  A
C1424      C1439   1.413       .  A
C1424      C1432   1.384       .  A
C1425      C1437   1.422       .  A
C1425      C1433   1.387       .  A
C1426      C1440   1.420       .  A
C1426      C1434   1.386       .  A
C1427      C1435   1.386       .  A
C1427      C1438   1.418       .  A
C1428      C1436   1.386       .  A
C1428      C1439   1.418       .  A
C1429      C1430   1.348   1_455  A
C1429      H1441   1.077       .  S
C1430      H1442   1.077       .  S
C1431      C1432   1.376   1_455  A
C1431      H1443   1.082       .  S
C1432      H1444   1.082       .  S
C1433      C1434   1.382       .  A
C1433      H1445   1.082       .  S
C1434      H1446   1.082       .  S
C1435      C1436   1.378       .  A
C1435      H1447   1.081       .  S
C1436      H1448   1.081       .  S
C1438      C1648   1.490       .  S
C1439      C1663   1.487       .  S
C1440      C1464   1.487       .  S
O1451     Ni1459   1.904       .  S
O1451      C1461   1.280       .  A
O1452     Ni1459   1.904       .  S
O1452      C1462   1.279       .  A
O1453     Ni1459   1.893       .  S
O1453      C1463   1.276       .  A
O1454     Ni1459   1.918       .  S
O1454      C1464   1.280       .  A
O1455     Ni1460   1.937       .  S
O1455      C1464   1.284       .  A
O1456     Ni1460   1.928       .  S
O1456      C1463   1.284       .  A
O1457     Ni1460   1.931       .  S
O1457      C1462   1.283       .  A
O1458     Ni1460   1.915       .  S
O1458      C1461   1.279       .  A
Ni1459    Ni1460   2.390       .  S
C1461      C1796   1.463       .  S
C1463      C1786   1.466       .  S
C1465      C1466   1.533       .  S
C1465      C1471   1.545       .  S
C1465      C1469   1.525       .  S
C1465      C1749   1.527       .  S
C1466      H1473   1.083       .  S
C1466      C1467   1.370       .  D
C1467      C1468   1.550       .  S
C1467      C1769   1.488       .  S
C1468      C1472   1.529       .  S
C1468      C1470   1.536       .  S
C1468      H1474   1.110       .  S
C1469      H1475   1.087       .  S
C1469      C1470   1.357       .  D
C1470      C1756   1.481       .  S
C1471      H1476   1.086       .  S
C1471      C1472   1.367       .  D
C1472      C1776   1.469       .  S
C1477      C1478   1.524       .  S
C1477      C1483   1.553       .  S
C1477      C1481   1.537       .  S
C1478      H1485   1.088       .  S
C1479      C1480   1.529       .  S
C1479      C1726   1.464       .  S
C1480      C1482   1.543       .  S
C1480      H1486   1.109       .  S
C1482      C1706   1.481       .  S
C1483      H1488   1.085       .  S
C1483      C1484   1.372       .  D
C1484      C1719   1.480       .  S
O1489     Ni1497   1.913       .  S
O1489      C1499   1.279       .  A
O1490     Ni1497   1.933       .  S
O1490      C1500   1.283       .  A
O1491     Ni1497   1.938       .  S
O1491      C1501   1.286       .  A
O1492     Ni1497   1.940       .  S
O1492      C1502   1.285       .  A
O1493     Ni1498   1.913       .  S
O1493      C1502   1.279       .  A
O1494     Ni1498   1.896       .  S
O1494      C1501   1.276       .  A
O1495     Ni1498   1.908       .  S
O1495      C1500   1.280       .  A
O1496     Ni1498   1.904       .  S
O1496      C1499   1.281       .  A
Ni1497    Ni1498   2.388       .  S
C1499      C1746   1.465       .  S
C1500      C1592   1.496       .  S
C1501      C1716   1.478       .  S
C1502      C1625   1.486       .  S
O1503     Ni1511   1.897       .  S
O1503      C1513   1.277       .  A
O1504     Ni1511   1.887       .  S
O1504      C1514   1.275       .  A
O1505     Ni1511   1.932       .  S
O1505      C1515   1.284       .  A
O1506     Ni1511   1.908       .  S
O1506      C1516   1.280       .  A
O1507     Ni1512   1.920       .  S
O1507      C1516   1.279       .  A
O1508     Ni1512   1.928       .  S
O1508      C1515   1.281       .  A
O1509     Ni1512   1.927       .  S
O1509      C1514   1.283       .  A
O1510     Ni1512   1.946       .  S
O1510      C1513   1.286       .  A
Ni1511    Ni1512   2.390       .  S
C1513      C1624   1.491       .  S
C1514      C1709   1.460       .  S
C1515      C1589   1.491       .  S
C1516      C1759   1.462       .  S
O1517     Ni1525   1.910       .  S
O1517      C1527   1.279       .  A
O1518     Ni1525   1.924       .  S
O1518      C1528   1.281       .  A
O1519     Ni1525   1.922       .  S
O1519      C1529   1.283       .  A
O1520     Ni1525   1.935       .  S
O1520      C1530   1.284       .  A
O1521     Ni1526   1.902       .  S
O1521      C1530   1.277       .  A
O1522     Ni1526   1.886       .  S
O1522      C1529   1.274       .  A
O1523     Ni1526   1.910       .  S
O1523      C1528   1.281       .  A
O1524     Ni1526   1.904       .  S
O1524      C1527   1.279       .  A
Ni1525    Ni1526   2.390       .  S
C1527      C1696   1.458       .  S
C1528      C1623   1.490       .  S
C1529      C1686   1.459       .  S
C1530      C1590   1.477       .  S
C1531      C1532   1.528   1_565  S
C1531      C1537   1.552       .  S
C1531      C1535   1.526   1_565  S
C1531      C1699   1.523       .  S
C1533      C1534   1.547       .  S
C1533      C1816   1.493       .  S
C1534      C1536   1.538       .  S
C1534      H1540   1.109       .  S
C1536      C1676   1.470       .  S
C1537      H1542   1.085       .  S
C1537      C1538   1.372       .  D
C1538      C1789   1.475       .  S
O1543     Ni1551   1.908       .  S
O1543      C1553   1.279       .  A
O1544     Ni1551   1.896       .  S
O1544      C1554   1.277       .  A
O1545     Ni1551   1.927       .  S
O1545      C1555   1.283       .  A
O1546     Ni1551   1.910       .  S
O1546      C1556   1.281       .  A
O1547     Ni1552   1.921       .  S
O1547      C1556   1.280       .  A
O1548     Ni1552   1.934       .  S
O1548      C1555   1.283       .  A
O1549     Ni1552   1.930       .  S
O1549      C1554   1.284       .  A
O1550     Ni1552   1.944       .  S
O1550      C1553   1.286       .  A
Ni1551    Ni1552   2.386       .  S
C1553      C1591   1.495       .  S
C1554      C1666   1.474       .  S
C1555      C1626   1.491       .  S
C1556      C1679   1.469       .  S
C1557      C1558   1.529       .  S
C1557      C1563   1.541       .  S
C1557      C1561   1.534       .  S
C1557      C1809   1.522       .  S
C1558      H1565   1.086       .  S
C1558      C1559   1.355       .  D
C1559      C1560   1.534       .  S
C1559      C1799   1.463       .  S
C1560      C1564   1.530       .  S
C1560      C1562   1.542       .  S
C1560      H1566   1.109       .  S
C1561      C1562   1.362       .  D
C1562      C1689   1.478       .  S
C1563      H1568   1.086       .  S
C1563      C1564   1.369       .  D
C1564      C1669   1.476       .  S
N1569      C1574   1.351       .  A
N1569      C1573   1.354       .  A
N1569      H1601   1.040       .  S
N1570      C1577   1.355       .  A
N1571      C1576   1.359       .  A
N1571      C1575   1.359       .  A
N1571      H1602   1.038       .  S
N1572      C1579   1.353       .  A
C1573      C1581   1.384       .  A
C1573      C1589   1.410       .  A
C1574      C1590   1.409       .  A
C1574      C1582   1.386       .  A
C1575      C1583   1.390       .  A
C1575      C1592   1.427       .  A
C1576      C1591   1.423       .  A
C1576      C1584   1.385       .  A
C1577      C1589   1.419       .  A
C1577      C1585   1.383       .  A
C1578      C1592   1.422       .  A
C1578      C1586   1.389       .  A
C1579      C1587   1.387       .  A
C1579      C1590   1.418       .  A
C1580      C1588   1.387       .  A
C1580      C1591   1.418       .  A
C1581      C1582   1.374       .  A
C1581      H1593   1.082       .  S
C1582      H1594   1.083       .  S
C1583      C1584   1.361       .  A
C1583      H1595   1.078       .  S
C1584      H1596   1.078       .  S
C1585      H1597   1.081       .  S
C1586      H1598   1.081       .  S
C1587      H1599   1.082       .  S
C1588      H1600   1.082       .  S
N1603      C1608   1.356       .  A
N1603      C1607   1.357       .  A
N1603      H1635   1.039       .  S
N1604      C1611   1.354       .  A
N1604      C1612   1.354       .  A
N1605      C1610   1.354       .  A
N1605      C1609   1.355       .  A
N1605      H1636   1.040       .  S
N1606      C1613   1.355       .  A
N1606      C1614   1.353       .  A
C1607      C1615   1.388       .  A
C1607      C1623   1.420       .  A
C1608      C1624   1.421       .  A
C1608      C1616   1.387       .  A
C1609      C1617   1.383       .  A
C1609      C1626   1.414       .  A
C1610      C1625   1.415       .  A
C1610      C1618   1.386       .  A
C1611      C1623   1.420       .  A
C1611      C1619   1.388       .  A
C1612      C1626   1.418       .  A
C1612      C1620   1.385       .  A
C1613      C1621   1.386       .  A
C1613      C1624   1.418       .  A
C1614      C1622   1.387       .  A
C1614      C1625   1.419       .  A
C1615      C1616   1.358       .  A
C1615      H1627   1.078       .  S
C1616      H1628   1.078       .  S
C1617      C1618   1.378       .  A
C1617      H1629   1.082       .  S
C1618      H1630   1.082       .  S
C1619      C1620   1.378       .  A
C1619      H1631   1.081       .  S
C1620      H1632   1.082       .  S
C1621      C1622   1.381       .  A
C1621      H1633   1.082       .  S
C1622      H1634   1.082       .  S
O1637     Ni1645   1.896       .  S
O1637      C1647   1.278       .  A
O1638     Ni1645   1.895       .  S
O1638      C1648   1.278       .  A
O1639     Ni1645   1.883       .  S
O1639      C1649   1.275       .  A
O1640     Ni1645   1.916       .  S
O1640      C1650   1.280       .  A
O1641     Ni1646   1.945       .  S
O1641      C1650   1.286       .  A
O1642     Ni1646   1.938       .  S
O1642      C1649   1.287       .  A
O1643     Ni1646   1.934       .  S
O1643      C1648   1.282       .  A
O1644     Ni1646   1.917       .  S
O1644      C1647   1.281       .  A
Ni1645    Ni1646   2.385       .  S
C1647      C1736   1.462       .  S
C1649      C1779   1.485       .  S
O1651     Ni1659   1.943       .  S
O1651      C1661   1.286       .  A
O1652     Ni1659   1.926       .  S
O1652      C1662   1.285       .  A
O1653     Ni1659   1.931       .  S
O1653      C1663   1.282       .  A
O1654     Ni1659   1.918       .  S
O1654      C1664   1.280       .  A
O1655     Ni1660   1.900       .  S
O1655      C1664   1.280       .  A
O1656     Ni1660   1.923       .  S
O1656      C1663   1.282       .  A
O1657     Ni1660   1.896       .  S
O1657      C1662   1.277       .  A
O1658     Ni1660   1.906       .  S
O1658      C1661   1.278       .  A
Ni1659    Ni1660   2.386       .  S
C1662      C1766   1.481       .  S
C1664      C1729   1.468       .  S
C1665      C1666   1.406       .  A
C1665      C1670   1.394       .  A
C1665      F1672   1.358       .  S
C1666      C1667   1.409       .  A
C1667      C1668   1.400       .  A
C1667      F1674   1.358       .  S
C1668      C1669   1.403       .  A
C1668      F1673   1.358       .  S
C1669      C1670   1.405       .  A
C1670      F1671   1.357       .  S
C1675      C1676   1.399       .  A
C1675      C1680   1.396       .  A
C1675      F1682   1.358       .  S
C1676      C1677   1.410       .  A
C1677      C1678   1.401       .  A
C1677      F1684   1.358       .  S
C1678      C1679   1.401       .  A
C1678      F1683   1.358       .  S
C1679      C1680   1.407       .  A
C1680      F1681   1.358       .  S
C1685      C1686   1.396       .  A
C1685      C1690   1.393       .  A
C1685      F1692   1.358       .  S
C1686      C1687   1.407   1_556  A
C1687      F1694   1.359       .  S
C1688      C1689   1.402       .  A
C1688      F1693   1.357       .  S
C1690      F1691   1.358       .  S
C1695      C1696   1.403       .  A
C1695      F1702   1.358       .  S
C1696      C1697   1.395       .  A
C1697      C1698   1.390       .  A
C1697      F1704   1.358       .  S
C1699      C1700   1.412       .  A
C1700      F1701   1.357       .  S
C1705      C1706   1.403       .  A
C1705      F1712   1.357       .  S
C1707      C1708   1.398       .  A
C1708      C1709   1.398       .  A
C1708      F1713   1.357       .  S
C1709      C1710   1.404       .  A
C1710      F1711   1.359   1_556  S
C1715      C1716   1.407       .  A
C1715      C1720   1.397       .  A
C1715      F1722   1.358       .  S
C1716      C1717   1.409       .  A
C1717      C1718   1.403       .  A
C1717      F1724   1.358       .  S
C1718      C1719   1.404       .  A
C1718      F1723   1.357       .  S
C1719      C1720   1.405       .  A
C1725      C1726   1.398       .  A
C1725      C1730   1.392       .  A
C1725      F1732   1.358       .  S
C1726      C1727   1.406       .  A
C1727      C1728   1.400       .  A
C1727      F1734   1.358   1_565  S
C1728      C1729   1.403       .  A
C1728      F1733   1.358       .  S
C1729      C1730   1.408       .  A
C1730      F1731   1.359       .  S
C1735      C1736   1.402       .  A
C1735      F1742   1.359   1_556  S
C1736      C1737   1.395       .  A
C1737      C1738   1.397       .  A
C1737      F1744   1.358       .  S
C1738      C1739   1.425       .  A
C1738      F1743   1.355       .  S
C1740      F1741   1.357       .  S
C1745      C1746   1.399       .  A
C1745      C1750   1.402       .  A
C1745      F1752   1.358       .  S
C1746      C1747   1.399       .  A
C1747      C1748   1.387       .  A
C1747      F1754   1.359       .  S
C1748      C1749   1.414       .  A
C1748      F1753   1.358       .  S
C1749      C1750   1.422       .  A
C1750      F1751   1.355       .  S
C1755      C1760   1.394       .  A
C1755      F1762   1.358       .  S
C1756      C1757   1.403       .  A
C1757      F1764   1.358       .  S
C1758      C1759   1.405       .  A
C1758      F1763   1.356       .  S
C1759      C1760   1.396       .  A
C1760      F1761   1.358       .  S
C1765      C1766   1.408       .  A
C1765      C1770   1.398       .  A
C1765      F1772   1.358       .  S
C1766      C1767   1.410       .  A
C1767      C1768   1.396       .  A
C1767      F1774   1.358       .  S
C1768      C1769   1.407       .  A
C1768      F1773   1.354       .  S
C1769      C1770   1.408       .  A
C1770      F1771   1.358       .  S
C1775      C1776   1.396       .  A
C1775      F1782   1.359       .  S
C1777      C1778   1.403       .  A
C1777      F1784   1.358       .  S
C1778      C1779   1.411       .  A
C1778      F1783   1.358       .  S
C1779      C1780   1.416   1_556  A
C1785      C1786   1.406       .  A
C1785      C1790   1.400       .  A
C1785      F1792   1.358       .  S
C1786      C1787   1.403       .  A
C1787      C1788   1.394       .  A
C1787      F1794   1.358       .  S
C1788      C1789   1.405       .  A
C1789      C1790   1.404       .  A
C1790      F1791   1.358       .  S
C1795      C1796   1.400       .  A
C1795      C1800   1.399       .  A
C1795      F1802   1.357       .  S
C1796      C1797   1.406       .  A
C1797      C1798   1.393       .  A
C1797      F1804   1.358       .  S
C1798      C1799   1.399       .  A
C1798      F1803   1.358       .  S
C1799      C1800   1.407       .  A
C1800      F1801   1.358       .  S
C1805      C1806   1.409   1_554  A
C1806      C1807   1.405       .  A
C1807      C1808   1.396       .  A
C1807      F1814   1.358       .  S
C1808      F1813   1.356       .  S
C1809      C1810   1.408       .  A
C1810      F1811   1.359       .  S
C1815      C1820   1.399       .  A
C1816      C1817   1.405       .  A
C1817      F1824   1.357       .  S
C1818      C1819   1.407   1_554  A
C1818      F1823   1.358       .  S
C1819      C1820   1.397       .  A
C1820      F1821   1.358       .  S
