geometry optimzed in LAMMPS
_audit_creation_date              2020-12-01 
_audit_creation_method            'lammps2cif' 
_symmetry_space_group_name_H-M    'P1' 
_symmetry_Int_Tables_number       1 
_symmetry_cell_setting            triclinic 
loop_ 
_symmetry_equiv_pos_as_xyz 
  x,y,z 
_cell_length_a                    34.18465599 
_cell_length_b                    50.28548423758885 
_cell_length_c                    43.00550868652514 
_cell_angle_alpha                 89.43805646102486 
_cell_angle_beta                  89.57649482562786 
_cell_angle_gamma                 89.6293802408134 
loop_ 
_atom_site_label 
_atom_site_type_symbol 
_atom_site_fract_x 
_atom_site_fract_y 
_atom_site_fract_z 
_atom_site_charge 
O1          O  0.98258111  0.99671247  0.06064793    -0.55100
C2          C  0.49724511  0.89018566  0.02460978     0.77500
O3          O  0.06011671  0.95487610  0.07999373    -0.56300
C4          C  0.99247775  0.99536057  0.03232620     0.77500
C5          C  0.41807762  0.94623058  0.09619669     0.79900
Cd6        Cd  0.98847599  0.94827384  0.07174662     1.37500
O7          O  0.51467845  0.91100945  0.01573194    -0.55100
O8          O  0.42025518  0.92969344  0.07426691    -0.53900
C9          C  0.06054789  0.94723291  0.10810144     0.79900
O10         O  0.44851910  0.95973191  0.10091565    -0.56300
O11         O  0.47680157  0.89190136  0.04911183    -0.54700
O12         O  0.00058496  0.97243265  0.02225138    -0.54700
O13         O  0.02797490  0.94017460  0.11952970    -0.53900
O14         O  0.23739240  0.96762487  0.21890999    -0.55100
C15         C  0.24167096  0.89358997  0.20020342     0.77500
O16         O  0.16904135  0.94372699  0.16174803    -0.56300
C17         C  0.24269306  0.99076347  0.20785125     0.77500
C18         C  0.31308255  0.93968431  0.12963699     0.79900
Cd19       Cd  0.24173675  0.94439647  0.16779045     1.37500
O20         O  0.26159818  0.91277748  0.21010403    -0.55100
O21         O  0.31110566  0.95519704  0.15257150    -0.53900
C22         C  0.16865744  0.95101671  0.13351434     0.79900
O23         O  0.28247498  0.92666193  0.12412823    -0.56300
O24         O  0.22166348  0.89789116  0.17609401    -0.54700
O25         O  0.24713804  0.99245280  0.17868184    -0.54700
O26         O  0.20162564  0.95605760  0.12134583    -0.53900
O27         O  0.28125716  0.71996992  0.20540717    -0.55100
C28         C  0.24272284  0.81569817  0.21817235     0.77500
O29         O  0.27787369  0.76752894  0.14441699    -0.56300
C30         C  0.25353201  0.70966904  0.22060574     0.77500
C31         C  0.18468242  0.75391380  0.15621794     0.79900
Cd32       Cd  0.24917207  0.76243003  0.19525905     1.37500
O33         O  0.27101470  0.80108384  0.22679384    -0.55100
O34         O  0.18033016  0.75744661  0.18517928    -0.53900
C35         C  0.31277006  0.76926337  0.15380682     0.79900
O36         O  0.21927163  0.75418732  0.14549390    -0.56300
O37         O  0.21555996  0.80461052  0.20365877    -0.54700
O38         O  0.22647957  0.72512677  0.22966148    -0.54700
O39         O  0.31813879  0.76858576  0.18295342    -0.53900
O40         O  0.53609356  0.80240797  0.01084753    -0.55100
C41         C  0.49781004  0.70837876  0.99885402     0.77500
O42         O  0.01846341  0.75930336  0.08797528    -0.56300
C43         C  0.99281631  0.82140258  0.01787060     0.77500
C44         C  0.44010853  0.76732995  0.06657485     0.79900
Cd45       Cd  0.50295246  0.76060423  0.02387713     1.37500
O46         O  0.46765601  0.72129195  0.00665810    -0.55100
O47         O  0.43414527  0.76251634  0.03814183    -0.53900
C48         C  0.05238719  0.75625492  0.07651085     0.79900
O49         O  0.47533746  0.76927592  0.07502004    -0.56300
O50         O  0.52932378  0.72123499  0.99616709    -0.54700
O51         O  0.01838225  0.81044306  0.03467657    -0.54700
O52         O  0.05597473  0.75827044  0.04720073    -0.53900
O53         O  0.49304652  0.56306515  0.01159053    -0.55100
C54         C  0.49497709  0.63242964  0.02480796     0.77500
O55         O  0.45102393  0.60108347  0.10644549    -0.56300
C56         C  0.49623520  0.53967130  0.02236168     0.77500
C57         C  0.06109440  0.58149318  0.10639044     0.79900
Cd58       Cd  0.49356514  0.58506053  0.06322932     1.37500
O59         O  0.52439698  0.61714059  0.02664394    -0.55100
O60         O  0.02792050  0.57549069  0.11756359    -0.53900
C61         C  0.42116210  0.58762890  0.09971458     0.79900
O62         O  0.06117243  0.58975819  0.07850324    -0.56300
O63         O  0.96510367  0.61768962  0.02765204    -0.54700
O64         O  0.49784946  0.53734898  0.05156491    -0.54700
O65         O  0.42451000  0.57271213  0.07630536    -0.53900
O66         O  0.26501230  0.61254733  0.21005886    -0.55100
C67         C  0.24386566  0.53693359  0.20863334     0.77500
O68         O  0.17136880  0.57379337  0.15935259    -0.56300
C69         C  0.24601472  0.63269121  0.20073126     0.77500
C70         C  0.31546269  0.57845158  0.13046037     0.79900
Cd71       Cd  0.24322423  0.58275376  0.16744406     1.37500
O72         O  0.23749674  0.56015774  0.21856990    -0.55100
O73         O  0.31264240  0.59348803  0.15375184    -0.53900
C74         C  0.16937671  0.58508986  0.13294460     0.79900
O75         O  0.28500121  0.56567481  0.12375596    -0.56300
O76         O  0.24866937  0.53468274  0.17961634    -0.54700
O77         O  0.22564367  0.62984568  0.17658904    -0.54700
O78         O  0.20096008  0.59488439  0.12259568    -0.53900
O79         O  0.00611651  0.06019162  0.46926917    -0.55100
C80         C  0.49486043  0.13451180  0.45427906     0.77500
O81         O  0.03465421  0.07734011  0.37168170    -0.56300
C82         C  0.00240312  0.03764984  0.45688065     0.77500
C83         C  0.42673218  0.09195965  0.38079411     0.79900
Cd84       Cd  0.49833654  0.08635872  0.41779559     1.37500
O85         O  0.51947360  0.13143167  0.43250403    -0.55100
O86         O  0.45493105  0.10799116  0.37790750    -0.53900
C87         C  0.06781168  0.08401823  0.38176078     0.79900
O88         O  0.43158458  0.07323718  0.40026098    -0.56300
O89         O  0.47180649  0.11543468  0.45964085    -0.54700
O90         O  0.99713341  0.03766813  0.42782488    -0.54700
O91         O  0.06864143  0.09182705  0.40962375    -0.53900
O92         O  0.24742873  0.06133520  0.26581624    -0.55100
C93         C  0.24462182  0.13634810  0.28225057     0.77500
O94         O  0.20784063  0.09449373  0.36375643    -0.56300
C95         C  0.24149464  0.03852846  0.27756296     0.77500
C96         C  0.32199497  0.08193254  0.34895008     0.79900
Cd97       Cd  0.24685488  0.08600294  0.31576556     1.37500
O98         O  0.25612685  0.11535213  0.26893480    -0.55100
O99         O  0.29330351  0.06694421  0.35475520    -0.53900
C100        C  0.17482595  0.08866758  0.35270958     0.79900
O101        O  0.31664090  0.09911761  0.32774573    -0.56300
O102        O  0.23383806  0.13407045  0.31033188    -0.54700
O103        O  0.23802379  0.03751762  0.30682250    -0.54700
O104        O  0.17464684  0.08172203  0.32450664    -0.53900
O105        O  0.25978586  0.30463773  0.25509030    -0.55100
C106        C  0.24634784  0.21385230  0.26362480     0.77500
O107        O  0.26760735  0.27417276  0.33862216    -0.56300
C108        C  0.23224637  0.31950307  0.26457960     0.77500
C109        C  0.17820661  0.25570733  0.33152303     0.79900
Cd110      Cd  0.23923501  0.26630550  0.28862569     1.37500
O111        O  0.21953190  0.22916001  0.25367961    -0.55100
O112        O  0.17081632  0.25961269  0.30295517    -0.53900
C113        C  0.30249398  0.27552692  0.32878540     0.79900
O114        O  0.21366868  0.25642922  0.33954117    -0.56300
O115        O  0.27233015  0.22413008  0.28017267    -0.54700
O116        O  0.20527120  0.30859274  0.28012462    -0.54700
O117        O  0.30804996  0.27325674  0.29972639    -0.53900
O118        O  0.51092091  0.22584032  0.49002586    -0.55100
C119        C  0.49537861  0.31626036  0.48139036     0.77500
O120        O  0.02044572  0.25502775  0.41390485    -0.56300
C121        C  0.48625935  0.21050520  0.47777728     0.77500
C122        C  0.42861366  0.27431204  0.41504971     0.79900
Cd123      Cd  0.49132526  0.26424073  0.45580814     1.37500
O124        O  0.46810498  0.30090753  0.49010105    -0.55100
O125        O  0.42299326  0.27449932  0.44424939    -0.53900
C126        C  0.05571960  0.25418015  0.42252385     0.79900
O127        O  0.46309948  0.26991915  0.40551169    -0.56300
O128        O  0.52329809  0.30607933  0.46624293    -0.54700
O129        O  0.96011617  0.21911724  0.47613655    -0.54700
O130        O  0.06211605  0.25652947  0.45139178    -0.53900
O131        O  0.50673700  0.46633295  0.46999590    -0.55100
C132        C  0.49211651  0.39234739  0.45861094     0.77500
O133        O  0.45318246  0.42631804  0.37799896    -0.56300
C134        C  0.49858565  0.48885623  0.45829820     0.77500
C135        C  0.06380146  0.44229486  0.38537399     0.79900
Cd136      Cd  0.49443556  0.44094221  0.42199188     1.37500
O137        O  0.47461923  0.41304583  0.46784094    -0.55100
O138        O  0.06587894  0.43524806  0.41364242    -0.53900
C139        C  0.42198533  0.43784756  0.38649600     0.79900
O140        O  0.02982260  0.44739537  0.37541667    -0.56300
O141        O  0.02231025  0.39579469  0.44487421    -0.54700
O142        O  0.48907025  0.48925586  0.42995664    -0.54700
O143        O  0.42375686  0.45071303  0.41158413    -0.53900
O144        O  0.25649930  0.46975010  0.27174836    -0.55100
C145        C  0.23933525  0.39582238  0.28590519     0.77500
O146        O  0.28569481  0.45991317  0.36416239    -0.56300
C147        C  0.24324582  0.49182789  0.28105592     0.77500
C148        C  0.17115029  0.44152258  0.35618506     0.79900
Cd149      Cd  0.24399091  0.44484974  0.32038631     1.37500
O150        O  0.24010332  0.41801482  0.27193363    -0.55100
O151        O  0.17104924  0.44883606  0.32793279    -0.53900
C152        C  0.31660775  0.44781168  0.35620085     0.79900
O153        O  0.20423946  0.43605640  0.36755918    -0.56300
O154        O  0.24119915  0.39622587  0.31523924    -0.54700
O155        O  0.23156874  0.49264556  0.30900199    -0.54700
O156        O  0.31468795  0.43463933  0.33135228    -0.53900
C157        C  0.09894428  0.44460705  0.36497380    -0.13700
C158        C  0.13519277  0.43926411  0.37551523    -0.28900
H159        H  0.09491343  0.45094325  0.34096025     0.15300
H160        H  0.13890790  0.43291354  0.39955619     0.15900
C161        C  0.38586454  0.43624558  0.36769850    -0.13700
C162        C  0.35256217  0.44917011  0.37526073    -0.28900
H163        H  0.38694178  0.42426922  0.34676685     0.15300
H164        H  0.35148507  0.46117736  0.39617229     0.15900
C165        C  0.49141392  0.36769195  0.47586339    -0.10600
C166        C  0.49264104  0.34463824  0.48390847    -0.12100
C167        C  0.07833907  0.25067306  0.36779993    -0.10600
C168        C  0.08737123  0.25128851  0.39959018     0.11500
C169        C  0.12659128  0.25048801  0.40886379    -0.10600
C170        C  0.15635022  0.25053922  0.38653013    -0.10600
C171        C  0.14719019  0.25161464  0.35473003     0.11500
C172        C  0.10802338  0.25087060  0.34552371    -0.10600
H173        H  0.04824354  0.25099021  0.36004606     0.15500
H174        H  0.13422807  0.25065957  0.43322912     0.15500
H175        H  0.18648139  0.25084044  0.39418748     0.15500
H176        H  0.10029117  0.25139988  0.32117562     0.15500
C177        C  0.37363259  0.27613263  0.33979526    -0.10600
C178        C  0.33496726  0.27854996  0.35044478     0.11500
C179        C  0.32745577  0.28191793  0.38232778    -0.10600
C180        C  0.35814615  0.28167000  0.40344788    -0.10600
C181        C  0.39666182  0.27796974  0.39290130     0.11500
C182        C  0.40427189  0.27585409  0.36088418    -0.10600
H183        H  0.38010716  0.27350930  0.31535003     0.15500
H184        H  0.29777409  0.28393950  0.39106557     0.15500
H185        H  0.35164561  0.28347355  0.42799686     0.15500
H186        H  0.43382826  0.27306256  0.35215995     0.15500
C187        C  0.23389968  0.34799466  0.26224168    -0.10600
C188        C  0.23629689  0.37102437  0.26967725    -0.12100
C189        C  0.24473032  0.16199824  0.26693859    -0.10600
C190        C  0.24528073  0.18542864  0.26035062    -0.12100
C191        C  0.48947871  0.18202436  0.47921672    -0.10600
C192        C  0.49216660  0.15918261  0.47095054    -0.12100
C193        C  0.10340099  0.08270092  0.36185121    -0.13700
C194        C  0.13885176  0.08999692  0.37213159    -0.28900
H195        H  0.10032248  0.07552930  0.33822165     0.15300
H196        H  0.14181845  0.09704673  0.39582138     0.15900
C197        C  0.39021111  0.09523276  0.36243836    -0.13700
C198        C  0.35924569  0.07899313  0.36635579    -0.28900
H199        H  0.38860439  0.11150914  0.34576706     0.15300
H200        H  0.36094839  0.06293865  0.38331423     0.15900
C201        C  0.24617192  0.51356179  0.22952323    -0.13700
C202        C  0.24096873  0.51539050  0.26044627    -0.28900
H203        H  0.25248217  0.49435742  0.21914658     0.15300
H204        H  0.23379437  0.53445976  0.27080678     0.15900
C205        C  0.49788785  0.51601152  0.00246975    -0.13700
C206        C  0.49954950  0.51358070  0.47640743    -0.28900
H207        H  0.49659775  0.49667349  0.01392836     0.15300
H208        H  0.99789167  0.52908709  0.47074145     0.15900
C209        C  0.38459698  0.58964791  0.11836858    -0.13700
C210        C  0.35205741  0.57582116  0.11190167    -0.28900
H211        H  0.38443471  0.60321188  0.13793084     0.15300
H212        H  0.35210313  0.56225403  0.09234169     0.15900
C213        C  0.09743741  0.57888289  0.12519419    -0.13700
C214        C  0.13267300  0.58707251  0.11458504    -0.28900
H215        H  0.09499138  0.57037940  0.14837811     0.15300
H216        H  0.13478537  0.59599705  0.09159539     0.15900
C217        C  0.49628543  0.65703931  0.00748441    -0.10600
C218        C  0.49720239  0.67985108  0.99849514    -0.12100
C219        C  0.15621736  0.74908081  0.10350936    -0.10600
C220        C  0.15099889  0.75059211  0.13585230     0.11500
C221        C  0.11310776  0.75083621  0.14851567    -0.10600
C222        C  0.08086384  0.75131476  0.12904895    -0.10600
C223        C  0.08608341  0.75163737  0.09666533     0.11500
C224        C  0.12388561  0.74961590  0.08398543    -0.10600
H225        H  0.18526500  0.74859701  0.09324578     0.15500
H226        H  0.10837703  0.75169532  0.17338891     0.15500
H227        H  0.05190310  0.75256327  0.13938931     0.15500
H228        H  0.12852167  0.74954248  0.05907450     0.15500
C229        C  0.41511704  0.77165402  0.12087458    -0.10600
C230        C  0.40771240  0.76994367  0.08888106     0.11500
C231        C  0.36900224  0.76962881  0.07839380    -0.10600
C232        C  0.33811270  0.77025130  0.09960184    -0.10600
C233        C  0.34543989  0.77109711  0.13163533     0.11500
C234        C  0.38414972  0.77216411  0.14214852    -0.10600
H235        H  0.44482063  0.77192560  0.12950840     0.15500
H236        H  0.36258513  0.76843304  0.05385451     0.15500
H237        H  0.30847066  0.76943122  0.09089821     0.15500
H238        H  0.39048733  0.77280548  0.16673712     0.15500
C239        C  0.25077186  0.68120945  0.22299594    -0.10600
C240        C  0.24845689  0.65807531  0.21588186    -0.12100
C241        C  0.24399182  0.01482179  0.22740737    -0.13700
C242        C  0.23897548  0.01421041  0.25847683    -0.28900
H243        H  0.24965632  0.03368223  0.21573177     0.15300
H244        H  0.23334201  0.99540660  0.27029568     0.15900
C245        C  0.24299761  0.84415443  0.22086985    -0.10600
C246        C  0.24262003  0.86762570  0.21460317    -0.12100
C247        C  0.00354462  0.01250953  0.47506563    -0.13700
C248        C  0.99401797  0.01937038  0.01227584    -0.28900
H249        H  0.49355049  0.99710223  0.46871306     0.15300
H250        H  0.98571245  0.03828187  0.02246028     0.15900
C251        C  0.50379372  0.84258039  0.99985807    -0.10600
C252        C  0.50107925  0.86536863  0.00834320    -0.12100
C253        C  0.13209129  0.95323138  0.11522385    -0.13700
C254        C  0.09683570  0.94627566  0.12685900    -0.28900
H255        H  0.13447835  0.96006503  0.09129035     0.15300
H256        H  0.09449933  0.93923485  0.15071505     0.15900
C257        C  0.38225098  0.94977146  0.11551922    -0.13700
C258        C  0.34885628  0.93652224  0.11017070    -0.28500
H259        H  0.38347441  0.96367435  0.13469216     0.15300
H260        H  0.34763726  0.92269116  0.09092090     0.15900
O261        O  0.00462145  0.96432561  0.51259051    -0.55100
C262        C  0.49915097  0.89872008  0.53550504     0.77500
O263        O  0.03513415  0.94252551  0.61254490    -0.56300
C264        C  0.00276887  0.98709907  0.52480544     0.77500
C265        C  0.42827139  0.94558008  0.60809269     0.79900
Cd266      Cd  0.99894398  0.93869685  0.56248300     1.37500
O267        O  0.47132150  0.91533372  0.53456173    -0.55100
O268        O  0.43383580  0.96304945  0.58719069    -0.53900
C269        C  0.06933094  0.94129373  0.60119841     0.79900
O270        O  0.45635963  0.92955238  0.61271879    -0.56300
O271        O  0.52765367  0.90443210  0.55267770    -0.54700
O272        O  0.99946794  0.98752565  0.55408282    -0.54700
O273        O  0.07148973  0.93881788  0.57196846    -0.53900
O274        O  0.25835933  0.97370449  0.71710139    -0.55100
C275        C  0.24797758  0.89776310  0.70340834     0.77500
O276        O  0.21057844  0.94060842  0.61947213    -0.56300
C277        C  0.24241224  0.99502348  0.70765550     0.77500
C278        C  0.32126162  0.95476638  0.63653414     0.79900
Cd279      Cd  0.24628779  0.94787368  0.66928030     1.37500
O280        O  0.23177614  0.91807425  0.71504360    -0.55100
O281        O  0.31779931  0.93983994  0.66021049    -0.53900
C282        C  0.17632070  0.94270697  0.63051507     0.79900
O283        O  0.29046690  0.96678027  0.62801390    -0.56300
O284        O  0.26261869  0.90047816  0.67650657    -0.54700
O285        O  0.22858842  0.99473175  0.68051731    -0.54700
O286        O  0.17400156  0.94662088  0.65947866    -0.53900
O287        O  0.26538756  0.73058033  0.73409711    -0.55100
C288        C  0.25277167  0.82055074  0.72299048     0.77500
O289        O  0.27757828  0.76453834  0.64693942    -0.56300
C290        C  0.24242445  0.71467238  0.72076239     0.77500
C291        C  0.18370836  0.77560896  0.65792052     0.79900
Cd292      Cd  0.24805700  0.76807677  0.69770875     1.37500
O293        O  0.22481586  0.80552033  0.73100967    -0.55100
O294        O  0.17830553  0.77159333  0.68680751    -0.53900
C295        C  0.31195742  0.76006015  0.65634775     0.79900
O296        O  0.21871227  0.77725468  0.64837523    -0.56300
O297        O  0.28078086  0.80999497  0.70831719    -0.54700
O298        O  0.21912674  0.72446569  0.70118185    -0.54700
O299        O  0.31694880  0.75894516  0.68553156    -0.53900
O300        O  0.52769577  0.80914227  0.50189726    -0.55100
C301        C  0.51120878  0.71570637  0.50405505     0.77500
O302        O  0.02261595  0.76992074  0.58039611    -0.56300
C303        C  0.98877422  0.81332614  0.50620814     0.77500
C304        C  0.43969909  0.75938617  0.56965859     0.79900
Cd305      Cd  0.50422898  0.76823231  0.52972421     1.37500
O306        O  0.48342432  0.73076607  0.49546744    -0.55100
O307        O  0.43467051  0.76245080  0.54064609    -0.53900
C308        C  0.05794379  0.76956033  0.57147120     0.79900
O309        O  0.47452245  0.75965470  0.57936988    -0.56300
O310        O  0.53862288  0.72644350  0.51866292    -0.54700
O311        O  0.96325846  0.80288461  0.52360738    -0.54700
O312        O  0.06449489  0.76498434  0.54294765    -0.53900
O313        O  0.49779444  0.56096967  0.51257630    -0.55100
C314        C  0.50717038  0.63838168  0.52535313     0.77500
O315        O  0.47050999  0.59032576  0.60945436    -0.56300
C316        C  0.50577476  0.53871476  0.52498555     0.77500
C317        C  0.07760131  0.57915427  0.60196435     0.79900
Cd318      Cd  0.50824652  0.58795623  0.55948749     1.37500
O319        O  0.51585069  0.61689240  0.51189971    -0.55100
O320        O  0.04664468  0.56873168  0.61255060    -0.53900
C321        C  0.43666975  0.58853518  0.59796052     0.79900
O322        O  0.07452234  0.59100864  0.57600510    -0.56300
O323        O  0.00266821  0.63122665  0.56208816    -0.54700
O324        O  0.51389479  0.53893770  0.55359151    -0.54700
O325        O  0.43539982  0.58645862  0.56866084    -0.53900
O326        O  0.22811696  0.61954401  0.70510003    -0.55100
C327        C  0.26267058  0.54169456  0.70361463     0.77500
O328        O  0.18845234  0.57508315  0.65287801    -0.56300
C329        C  0.25199588  0.63824264  0.70071078     0.77500
C330        C  0.32867142  0.58813367  0.62684170     0.79900
Cd331      Cd  0.25694053  0.58937195  0.66502927     1.37500
O332        O  0.26032013  0.56466785  0.71522616    -0.55100
O333        O  0.32991391  0.58817589  0.65627900    -0.53900
C334        C  0.18430884  0.58945959  0.62882755     0.79900
O335        O  0.29481292  0.58845479  0.61513586    -0.56300
O336        O  0.26298142  0.54063658  0.67423636    -0.54700
O337        O  0.27825418  0.63450693  0.68038758    -0.54700
O338        O  0.21350923  0.60342712  0.62116445    -0.53900
O339        O  0.01593002  0.04059605  0.93357162    -0.55100
C340        C  0.49377526  0.14010719  0.95827002     0.77500
O341        O  0.04870167  0.07184788  0.87766580    -0.56300
C342        C  0.00518110  0.04206502  0.96168000     0.77500
C343        C  0.42982699  0.09329035  0.88436541     0.79900
Cd344      Cd  0.49972087  0.09107395  0.92389370     1.37500
O345        O  0.48267726  0.11838830  0.97024056    -0.55100
O346        O  0.42797850  0.08575013  0.91248713    -0.53900
C347        C  0.07848133  0.08560845  0.88357507     0.79900
O348        O  0.46345588  0.09966184  0.87450541    -0.56300
O349        O  0.50703037  0.13927923  0.93078925    -0.54700
O350        O  0.99472840  0.06481155  0.97096709    -0.54700
O351        O  0.07535195  0.10085577  0.90671125    -0.53900
O352        O  0.24016601  0.06602121  0.76484120    -0.55100
C353        C  0.25542665  0.13952410  0.77363839     0.77500
O354        O  0.21305388  0.10914556  0.85577166    -0.56300
C355        C  0.25225390  0.04387257  0.77523418     0.77500
C356        C  0.32435376  0.08863906  0.85208725     0.79900
Cd357      Cd  0.25441716  0.09169937  0.81252995     1.37500
O358        O  0.28133624  0.12166649  0.77060930    -0.55100
O359        O  0.32521192  0.09969337  0.82552402    -0.53900
C360        C  0.18283835  0.09572891  0.84989298     0.79900
O361        O  0.29162012  0.07938925  0.86051393    -0.56300
O362        O  0.22950883  0.13543970  0.79417331    -0.54700
O363        O  0.26457508  0.04364934  0.80283662    -0.54700
O364        O  0.18541614  0.08031636  0.82682476    -0.53900
O365        O  0.28179142  0.30698208  0.74290924    -0.55100
C366        C  0.25908452  0.21563413  0.74869601     0.77500
O367        O  0.28235858  0.27166876  0.82501185    -0.56300
C368        C  0.25406447  0.32218107  0.75129995     0.77500
C369        C  0.19249483  0.26266956  0.81560642     0.79900
Cd370      Cd  0.25594389  0.26833906  0.77370707     1.37500
O371        O  0.23024831  0.23057845  0.74230179    -0.55100
O372        O  0.18633718  0.26880790  0.78736103    -0.53900
C373        C  0.31749804  0.27504883  0.81658629     0.79900
O374        O  0.22760373  0.25854459  0.82351238    -0.56300
O375        O  0.28835806  0.22650159  0.76066304    -0.54700
O376        O  0.22509520  0.31142057  0.76444397    -0.54700
O377        O  0.32453796  0.27526479  0.78759617    -0.53900
O378        O  0.51871084  0.23026796  0.98601443    -0.55100
C379        C  0.50404420  0.32120329  0.97608223     0.77500
O380        O  0.03532961  0.26628419  0.90019025    -0.56300
C381        C  0.48931857  0.21640814  0.97921924     0.77500
C382        C  0.43826413  0.27671643  0.90803177     0.79900
Cd383      Cd  0.49800677  0.26838371  0.95251734     1.37500
O384        O  0.47347484  0.30789945  0.98165318    -0.55100
O385        O  0.43032020  0.27313935  0.93661082    -0.53900
C386        C  0.07078854  0.26329866  0.90770610     0.79900
O387        O  0.47407354  0.27711918  0.90036449    -0.56300
O388        O  0.53314150  0.30872718  0.96541517    -0.54700
O389        O  0.97782021  0.22693570  0.96490979    -0.54700
O390        O  0.07846801  0.26246723  0.93651304    -0.53900
O391        O  0.49736609  0.47045850  0.96349020    -0.55100
C392        C  0.50577636  0.39731631  0.95079081     0.77500
O393        O  0.46916745  0.43561667  0.86733217    -0.56300
C394        C  0.50349855  0.49339028  0.95222756     0.77500
C395        C  0.08304653  0.45027087  0.88458445     0.79900
Cd396      Cd  0.50703395  0.44609649  0.91455874     1.37500
O397        O  0.52327232  0.41764160  0.96054668    -0.55100
O398        O  0.07799321  0.43280388  0.90559295    -0.53900
C399        C  0.43667890  0.44440882  0.87716848     0.79900
O400        O  0.05455515  0.46589456  0.87994504    -0.56300
O401        O  0.99409604  0.40021987  0.92954637    -0.54700
O402        O  0.51117022  0.49462907  0.92348171    -0.54700
O403        O  0.43644352  0.45396291  0.90428973    -0.53900
O404        O  0.26539387  0.47040298  0.76249175    -0.55100
C405        C  0.25892727  0.39800609  0.77598639     0.77500
O406        O  0.29732409  0.45694835  0.85975512    -0.56300
C407        C  0.26148584  0.49342136  0.77373861     0.77500
C408        C  0.18758034  0.44039114  0.85083715     0.79900
Cd409      Cd  0.25899488  0.44592910  0.81286031     1.37500
O410        O  0.23779043  0.41778898  0.76868195    -0.55100
O411        O  0.19095101  0.45808997  0.82989000    -0.53900
C412        C  0.33036698  0.45031438  0.84887226     0.79900
O413        O  0.21691214  0.42527882  0.85443534    -0.56300
O414        O  0.27978485  0.40025371  0.79995135    -0.54700
O415        O  0.25683850  0.49457820  0.80288474    -0.54700
O416        O  0.33080087  0.44199039  0.82121307    -0.53900
C417        C  0.11974350  0.45286944  0.86608025    -0.13700
C418        C  0.15151059  0.43722778  0.87007987    -0.28900
H419        H  0.12048809  0.46844104  0.84836518     0.15300
H420        H  0.15105562  0.42160983  0.88774752     0.15900
C421        C  0.40119487  0.44334645  0.85776222    -0.13700
C422        C  0.36612827  0.45210561  0.86785848    -0.28900
H423        H  0.40398123  0.43483672  0.83467701     0.15300
H424        H  0.36328925  0.46038714  0.89105384     0.15900
C425        C  0.50516631  0.37260187  0.96797796    -0.10600
C426        C  0.50438465  0.34972929  0.97677675    -0.12100
C427        C  0.09218366  0.26432759  0.85230556    -0.10600
C428        C  0.10151138  0.26145281  0.88392877     0.11500
C429        C  0.14055734  0.25780434  0.89270315    -0.10600
C430        C  0.16999223  0.25756690  0.87023886    -0.10600
C431        C  0.16085170  0.26108449  0.83868448     0.11500
C432        C  0.12171072  0.26422886  0.82979860    -0.10600
H433        H  0.06215337  0.26716318  0.84499322     0.15500
H434        H  0.14841975  0.25554515  0.91691214     0.15500
H435        H  0.20004234  0.25518732  0.87769196     0.15500
H436        H  0.11401824  0.26696791  0.80561620     0.15500
C437        C  0.38748044  0.28164925  0.83062371    -0.10600
C438        C  0.34838135  0.27802106  0.83975245     0.11500
C439        C  0.33886687  0.27617377  0.87149570    -0.10600
C440        C  0.36809426  0.27677666  0.89376488    -0.10600
C441        C  0.40735711  0.27924460  0.88467587     0.11500
C442        C  0.41682932  0.28226194  0.85298766    -0.10600
H443        H  0.39543336  0.28334052  0.80629208     0.15500
H444        H  0.30885554  0.27353763  0.87916822     0.15500
H445        H  0.36003227  0.27450542  0.91801469     0.15500
H446        H  0.44698115  0.28432462  0.84542752     0.15500
C447        C  0.25694657  0.35068687  0.75040260    -0.10600
C448        C  0.25823006  0.37349823  0.75891487    -0.12100
C449        C  0.25627891  0.16411316  0.75603417    -0.10600
C450        C  0.25709951  0.18708192  0.74741183    -0.12100
C451        C  0.48959957  0.18796505  0.98197439    -0.10600
C452        C  0.49101829  0.16490402  0.97453190    -0.12100
C453        C  0.11454299  0.08358883  0.86419195    -0.13700
C454        C  0.14680074  0.09814503  0.86924768    -0.28900
H455        H  0.11444557  0.06953999  0.84511490     0.15300
H456        H  0.14698241  0.11220457  0.88830995     0.15900
C457        C  0.39503936  0.09492228  0.86379992    -0.13700
C458        C  0.35917635  0.08655892  0.87259291    -0.28900
H459        H  0.39921083  0.10326784  0.84062172     0.15300
H460        H  0.35509723  0.07779813  0.89557949     0.15900
C461        C  0.26454340  0.51724653  0.72302108    -0.13700
C462        C  0.26177227  0.51783078  0.75424636    -0.28900
H463        H  0.26727179  0.49828162  0.71125027     0.15300
H464        H  0.25861868  0.53679674  0.76595674     0.15900
C465        C  0.50588653  0.51374342  0.50720883    -0.13700
C466        C  0.50175643  0.51752831  0.97141550    -0.28900
H467        H  0.51136051  0.49519834  0.51967629     0.15300
H468        H  0.00934094  0.53705414  0.96888378     0.15900
C469        C  0.40101066  0.58884878  0.61809990    -0.13700
C470        C  0.36436730  0.58772342  0.60675239    -0.28900
H471        H  0.40515862  0.59016512  0.64308495     0.15300
H472        H  0.36021848  0.58667341  0.58174606     0.15900
C473        C  0.11486854  0.57744161  0.61948632    -0.13700
C474        C  0.14759773  0.59032012  0.61050246    -0.28900
H475        H  0.11500066  0.56575722  0.64080961     0.15300
H476        H  0.14728026  0.60240781  0.58949050     0.15900
C477        C  0.50805342  0.66387045  0.50951270    -0.10600
C478        C  0.50948587  0.68713096  0.50201302    -0.12100
C479        C  0.15898551  0.77695778  0.60388697    -0.10600
C480        C  0.15118624  0.77707737  0.63598273     0.11500
C481        C  0.11236377  0.77650525  0.64668084    -0.10600
C482        C  0.08181367  0.77492374  0.62552855    -0.10600
C483        C  0.08977623  0.77365887  0.59348522     0.11500
C484        C  0.12851127  0.77514704  0.58278809    -0.10600
H485        H  0.18875940  0.77733944  0.59505741     0.15500
H486        H  0.10569590  0.77660389  0.67131006     0.15500
H487        H  0.05205945  0.77387604  0.63431519     0.15500
H488        H  0.13531377  0.77434032  0.55820546     0.15500
C489        C  0.41399320  0.75463369  0.62354963    -0.10600
C490        C  0.40684186  0.75666705  0.59149379     0.11500
C491        C  0.36822889  0.75793199  0.58084110    -0.10600
C492        C  0.33724519  0.75816113  0.60204706    -0.10600
C493        C  0.34446185  0.75713999  0.63416002     0.11500
C494        C  0.38301903  0.75485937  0.64474721    -0.10600
H495        H  0.44360573  0.75363389  0.63234168     0.15500
H496        H  0.36202092  0.75949934  0.55625493     0.15500
H497        H  0.30766995  0.75983291  0.59329739     0.15500
H498        H  0.38929268  0.75402848  0.66935644     0.15500
C499        C  0.24536742  0.68628312  0.72388222    -0.10600
C500        C  0.24840507  0.66320500  0.71666287    -0.12100
C501        C  0.24006833  0.01915980  0.72688538    -0.13700
C502        C  0.25279395  0.01949679  0.75637116    -0.28900
H503        H  0.22784122  0.03710182  0.71642408     0.15300
H504        H  0.26470834  0.00148042  0.76688629     0.15900
C505        C  0.25082420  0.84898649  0.72601649    -0.10600
C506        C  0.24914168  0.87234478  0.71919701    -0.12100
C507        C  0.00477781  0.01829303  0.98215379    -0.13700
C508        C  0.00403246  0.01208565  0.50634611    -0.28900
H509        H  0.52627208  0.02742522  0.00990569     0.15300
H510        H  0.00413723  0.03071193  0.51897490     0.15900
C511        C  0.49757737  0.85118877  0.50997331    -0.10600
C512        C  0.49794576  0.87390174  0.51899261    -0.12100
C513        C  0.14132198  0.94085623  0.61031374    -0.13700
C514        C  0.10439906  0.94277561  0.62137863    -0.28900
H515        H  0.14618954  0.93799878  0.58553192     0.15300
H516        H  0.09955506  0.94554368  0.64618099     0.15900
C517        C  0.39111516  0.94348320  0.62611748    -0.13700
C518        C  0.35890522  0.95803232  0.61941316    -0.28500
H519        H  0.38990683  0.92881789  0.64483567     0.15300
H520        H  0.35976287  0.97226865  0.60023760     0.15900
O521        O  0.46508592  0.96143575  0.01103052    -0.55100
C522        C  0.98923753  0.89837645  0.03876744     0.77500
O523        O  0.55864542  0.95004271  0.07297762    -0.56300
C524        C  0.48397208  0.98274937  0.01408187     0.77500
C525        C  0.91376165  0.95023772  0.10576158     0.79900
Cd526      Cd  0.48950255  0.93939439  0.05895927     1.37500
O527        O  0.97330296  0.91886034  0.02706295    -0.55100
O528        O  0.91754684  0.93732188  0.08082101    -0.53900
C529        C  0.55907280  0.93709156  0.09833545     0.79900
O530        O  0.94399487  0.96209678  0.11492746    -0.56300
O531        O  0.00447338  0.90086050  0.06527449    -0.54700
O532        O  0.50448914  0.98455088  0.03834173    -0.54700
O533        O  0.52768349  0.92534308  0.10562351    -0.53900
O534        O  0.72654012  0.99174341  0.17921342    -0.55100
C535        C  0.72990425  0.89534890  0.20744028     0.77500
O536        O  0.66335225  0.93416689  0.15736640    -0.56300
C537        C  0.73632208  0.99080189  0.20749820     0.77500
C538        C  0.80690033  0.94031539  0.13388598     0.79900
Cd539      Cd  0.73371417  0.94333036  0.16964174     1.37500
O540        O  0.75309260  0.89771219  0.18457410    -0.55100
O541        O  0.80361479  0.95425864  0.15813202    -0.53900
C542        C  0.66349964  0.94522449  0.13084293     0.79900
O543        O  0.77669257  0.92765659  0.12610029    -0.56300
O544        O  0.70855268  0.91523344  0.21361791    -0.54700
O545        O  0.74515609  0.96809017  0.21829885    -0.54700
O546        O  0.69561343  0.95530302  0.12224634    -0.53900
O547        O  0.76633067  0.72436769  0.22796758    -0.55100
C548        C  0.72563635  0.81893737  0.23137068     0.77500
O549        O  0.76404652  0.77361315  0.16040801    -0.56300
C550        C  0.73552435  0.71327036  0.23761897     0.77500
C551        C  0.67789084  0.75520531  0.16338952     0.79900
Cd552      Cd  0.73408354  0.76531231  0.20979518     1.37500
O553        O  0.69811339  0.80689214  0.21835879    -0.55100
O554        O  0.66768464  0.76125889  0.19085651    -0.53900
C555        C  0.79892612  0.77292383  0.16990811     0.79900
O556        O  0.71417430  0.75327490  0.15785240    -0.56300
O557        O  0.75485522  0.80508274  0.23961263    -0.54700
O558        O  0.70557263  0.72791923  0.24076334    -0.54700
O559        O  0.80412272  0.76897609  0.19877618    -0.53900
O560        O  0.96726890  0.80642799  0.00612585    -0.55100
C561        C  0.97960887  0.71476611  0.01526752     0.77500
O562        O  0.52738354  0.75102571  0.07460706    -0.56300
C563        C  0.50623165  0.81402871  0.00020441     0.77500
C564        C  0.92475061  0.77447263  0.08179474     0.79900
Cd565      Cd  0.98694713  0.76739293  0.03931893     1.37500
O566        O  0.00670509  0.72961896  0.00501591    -0.55100
O567        O  0.91852261  0.77478830  0.05274603    -0.53900
C568        C  0.56330451  0.75144884  0.06736975     0.79900
O569        O  0.95974341  0.77138138  0.09054701    -0.56300
O570        O  0.95305383  0.72567832  0.03121187    -0.54700
O571        O  0.47708479  0.79965796  0.99429090    -0.54700
O572        O  0.57185165  0.75517308  0.03889374    -0.53900
O573        O  0.00048845  0.56348865  0.02008416    -0.55100
C574        C  0.98501512  0.63739963  0.03603733     0.77500
O575        O  0.94748753  0.60065111  0.11550281    -0.56300
C576        C  0.99216331  0.54046520  0.03010961     0.77500
C577        C  0.56322903  0.58259301  0.10251817     0.79900
Cd578      Cd  0.98854347  0.58696331  0.07007180     1.37500
O579        O  0.00632624  0.63396932  0.05962645    -0.55100
O580        O  0.55622283  0.60232579  0.08494637    -0.53900
C581        C  0.91612834  0.58958711  0.10737539     0.79900
O582        O  0.53787322  0.56442123  0.10266070    -0.56300
O583        O  0.46484632  0.62580007  0.04019378    -0.54700
O584        O  0.98258064  0.53876348  0.05851317    -0.54700
O585        O  0.91770852  0.57705686  0.08202217    -0.53900
O586        O  0.71341988  0.61752304  0.21995398    -0.55100
C587        C  0.73900166  0.54147890  0.21180680     0.77500
O588        O  0.69291779  0.61127375  0.13507583    -0.56300
C589        C  0.73423293  0.63751066  0.21326319     0.77500
C590        C  0.80891196  0.58515307  0.13709127     0.79900
Cd591      Cd  0.73692564  0.59006720  0.17469252     1.37500
O592        O  0.74794156  0.56375900  0.22310690    -0.55100
O593        O  0.80903397  0.59476309  0.16415887    -0.53900
C594        C  0.66457436  0.59547029  0.13872794     0.79900
O595        O  0.77591902  0.57795158  0.12723368    -0.56300
O596        O  0.72983420  0.54151922  0.18341330    -0.54700
O597        O  0.75583940  0.63562680  0.18940527    -0.54700
O598        O  0.66928620  0.57731699  0.15891515    -0.53900
O599        O  0.50787814  0.06292340  0.46840816    -0.55100
C600        C  0.99681174  0.13332325  0.45985022     0.77500
O601        O  0.53751782  0.07417322  0.37056757    -0.56300
C602        C  0.50014196  0.03992538  0.45864070     0.77500
C603        C  0.92430080  0.09316928  0.38583737     0.79900
Cd604      Cd  0.99743506  0.08673397  0.42062492     1.37500
O605        O  0.97429813  0.11395845  0.46514070    -0.55100
O606        O  0.95412956  0.10719948  0.38018641    -0.53900
C607        C  0.57034625  0.08138797  0.38076885     0.79900
O608        O  0.92781568  0.07621931  0.40757150    -0.56300
O609        O  0.01970277  0.13132260  0.43675212    -0.54700
O610        O  0.49206340  0.03823988  0.43010280    -0.54700
O611        O  0.57024767  0.09056696  0.40803170    -0.53900
O612        O  0.75994551  0.03791162  0.30369839    -0.55100
C613        C  0.75092044  0.13522822  0.27908170     0.77500
O614        O  0.70946502  0.09619403  0.36181991    -0.56300
C615        C  0.74849472  0.03876363  0.27586434     0.77500
C616        C  0.81969953  0.08410017  0.35367352     0.79900
Cd617      Cd  0.74936771  0.08582602  0.31481691     1.37500
O618        O  0.77708905  0.11762754  0.27541036    -0.55100
O619        O  0.78973371  0.07033236  0.35975357    -0.53900
C620        C  0.67750314  0.08700286  0.35205959     0.79900
O621        O  0.81739286  0.09909969  0.32995657    -0.56300
O622        O  0.72422663  0.13007206  0.29867811    -0.54700
O623        O  0.73772076  0.06129539  0.26572912    -0.54700
O624        O  0.67835634  0.07722774  0.32505529    -0.53900
O625        O  0.77342891  0.30346891  0.25608969    -0.55100
C626        C  0.75345225  0.21241815  0.25873832     0.77500
O627        O  0.77292334  0.26390524  0.33845873    -0.56300
C628        C  0.74509564  0.31849881  0.26344992     0.77500
C629        C  0.68206239  0.25687710  0.32651051     0.79900
Cd630      Cd  0.74728280  0.26423944  0.28611016     1.37500
O631        O  0.72385189  0.22684143  0.25307722    -0.55100
O632        O  0.67694382  0.26049124  0.29756968    -0.53900
C633        C  0.80793622  0.26874868  0.33073516     0.79900
O634        O  0.71701197  0.25627545  0.33594881    -0.56300
O635        O  0.78207204  0.22356264  0.27131809    -0.54700
O636        O  0.71603504  0.30755457  0.27626396    -0.54700
O637        O  0.81506841  0.27155887  0.30192002    -0.53900
O638        O  0.01748343  0.22282034  0.49588634    -0.55100
C639        C  0.99711849  0.31425777  0.48773693     0.77500
O640        O  0.52009679  0.26021072  0.40491637    -0.56300
C641        C  0.98944498  0.20798890  0.48827903     0.77500
C642        C  0.92946246  0.26796489  0.42208295     0.79900
Cd643      Cd  0.99232343  0.26114349  0.46441789     1.37500
O644        O  0.96942939  0.29943732  0.49689363    -0.55100
O645        O  0.92311658  0.26863068  0.45117488    -0.53900
C646        C  0.55502248  0.25804913  0.41409332     0.79900
O647        O  0.96448298  0.26444967  0.41331968    -0.56300
O648        O  0.02470164  0.30330559  0.47301837    -0.54700
O649        O  0.46083828  0.22107587  0.46053078    -0.54700
O650        O  0.56067460  0.25884838  0.44320412    -0.53900
O651        O  0.99731140  0.46262070  0.47595867    -0.55100
C652        C  0.99538842  0.39064752  0.46428353     0.77500
O653        O  0.94948349  0.41608859  0.38836010    -0.56300
C654        C  0.99746406  0.48571384  0.46408806     0.77500
C655        C  0.56629184  0.44550326  0.38508563     0.79900
Cd656      Cd  0.99441311  0.43836134  0.42569925     1.37500
O657        O  0.96805266  0.40757604  0.46655754    -0.55100
O658        O  0.56669617  0.43762001  0.41312138    -0.53900
C659        C  0.92188406  0.43288559  0.39023502     0.79900
O660        O  0.53305058  0.45123986  0.37410806    -0.56300
O661        O  0.51002345  0.39399141  0.43286492    -0.54700
O662        O  0.99642075  0.48699667  0.43475875    -0.54700
O663        O  0.92758191  0.45220053  0.40825834    -0.53900
O664        O  0.73664589  0.46938009  0.26969135    -0.55100
C665        C  0.74688676  0.39543232  0.28457762     0.77500
O666        O  0.79139040  0.46227664  0.35940633    -0.56300
C667        C  0.74551819  0.49188413  0.28036626     0.77500
C668        C  0.67411893  0.44334781  0.35730940     0.79900
Cd669      Cd  0.74602333  0.44438982  0.31975184     1.37500
O670        O  0.76691153  0.41520338  0.27566071    -0.55100
O671        O  0.67400730  0.45099508  0.32918781    -0.53900
C672        C  0.81852825  0.44533163  0.35625349     0.79900
O673        O  0.70701672  0.43652522  0.36810210    -0.56300
O674        O  0.72662053  0.39832397  0.30903958    -0.54700
O675        O  0.75415101  0.49245587  0.30883423    -0.54700
O676        O  0.81257605  0.42740178  0.33642473    -0.53900
C677        C  0.60230474  0.44785647  0.36578639    -0.13700
C678        C  0.63815752  0.44201584  0.37680908    -0.28900
H679        H  0.59909031  0.45428553  0.34172276     0.15300
H680        H  0.64130962  0.43552369  0.40085701     0.15900
C681        C  0.88527774  0.42997468  0.37209124    -0.13700
C682        C  0.85495314  0.44709581  0.37478579    -0.28900
H683        H  0.88339334  0.41346193  0.35601491     0.15300
H684        H  0.85698171  0.46348212  0.39102840     0.15900
C685        C  0.99500962  0.36585589  0.48140550    -0.10600
C686        C  0.99546441  0.34277447  0.48952677    -0.12100
C687        C  0.57973370  0.25517271  0.35962679    -0.10600
C688        C  0.58732062  0.25527010  0.39170260     0.11500
C689        C  0.62601984  0.25375238  0.40206977    -0.10600
C690        C  0.65676980  0.25325896  0.38068092    -0.10600
C691        C  0.64930787  0.25439609  0.34861096     0.11500
C692        C  0.61053662  0.25477898  0.33820264    -0.10600
H693        H  0.55001009  0.25609849  0.35105114     0.15500
H694        H  0.63257011  0.25361485  0.42664339     0.15500
H695        H  0.68647012  0.25281922  0.38932335     0.15500
H696        H  0.60406669  0.25546547  0.31362128     0.15500
C697        C  0.87793660  0.27350698  0.34518775    -0.10600
C698        C  0.83872395  0.27059579  0.35426944     0.11500
C699        C  0.82922877  0.26858366  0.38605940    -0.10600
C700        C  0.85864207  0.26864213  0.40838381    -0.10600
C701        C  0.89796496  0.27050647  0.39917309     0.11500
C702        C  0.90731799  0.27337822  0.36746188    -0.10600
H703        H  0.88598141  0.27524969  0.32088067     0.15500
H704        H  0.79909957  0.26648238  0.39366981     0.15500
H705        H  0.85073747  0.26644355  0.43267154     0.15500
H706        H  0.93748176  0.27505368  0.35978050     0.15500
C707        C  0.74725060  0.34707320  0.26153293    -0.10600
C708        C  0.74783074  0.37027630  0.26870705    -0.12100
C709        C  0.75224542  0.16061958  0.26318394    -0.10600
C710        C  0.75286952  0.18392819  0.25597811    -0.12100
C711        C  0.99284615  0.17951013  0.48807192    -0.10600
C712        C  0.99523523  0.15714860  0.47817103    -0.12100
C713        C  0.60648022  0.07936052  0.36152911    -0.13700
C714        C  0.64145329  0.08796358  0.37146738    -0.28900
H715        H  0.60403054  0.07105311  0.33837773     0.15300
H716        H  0.64375923  0.09642503  0.39455135     0.15900
C717        C  0.88785711  0.09643419  0.36748600    -0.13700
C718        C  0.85533959  0.08208797  0.37319590    -0.28900
H719        H  0.88811611  0.11070047  0.34840039     0.15300
H720        H  0.85502089  0.06793545  0.39239918     0.15900
C721        C  0.73876135  0.51662514  0.23049641    -0.13700
C722        C  0.74609623  0.51642480  0.26115859    -0.28900
H723        H  0.73185456  0.49817148  0.21883214     0.15300
H724        H  0.75291752  0.53493533  0.27273074     0.15900
C725        C  0.99342340  0.51665522  0.01008199    -0.13700
C726        C  0.99857597  0.51008722  0.48300274    -0.28900
H727        H  0.98661789  0.49755265  0.02077980     0.15300
H728        H  0.49405485  0.53217085  0.46404241     0.15900
C729        C  0.88005285  0.59153237  0.12679935    -0.13700
C730        C  0.84497454  0.58237394  0.11775234    -0.28900
H731        H  0.88240774  0.60138832  0.14911465     0.15300
H732        H  0.84237981  0.57289696  0.09522810     0.15900
C733        C  0.59898801  0.58041772  0.12178594    -0.13700
C734        C  0.62824008  0.59825496  0.12019715    -0.28900
H735        H  0.60168673  0.56322974  0.13716420     0.15300
H736        H  0.62588820  0.61518225  0.10439511     0.15900
C737        C  0.98271947  0.66294344  0.02050059    -0.10600
C738        C  0.98111538  0.68622068  0.01317444    -0.12100
C739        C  0.66096348  0.74944398  0.10754188    -0.10600
C740        C  0.64906040  0.75137946  0.13880630     0.11500
C741        C  0.60915572  0.75111284  0.14631282    -0.10600
C742        C  0.58146208  0.74982356  0.12291925    -0.10600
C743        C  0.59314663  0.74911446  0.09157540     0.11500
C744        C  0.63312041  0.74843331  0.08399860    -0.10600
H745        H  0.69171866  0.74961808  0.10121756     0.15500
H746        H  0.59929448  0.75250291  0.17020480     0.15500
H747        H  0.55077433  0.75040610  0.12940810     0.15500
H748        H  0.64276877  0.74786626  0.05999766     0.15500
C749        C  0.90071231  0.77335191  0.13638210    -0.10600
C750        C  0.89290813  0.77668806  0.10455890     0.11500
C751        C  0.85432994  0.78059141  0.09466930    -0.10600
C752        C  0.82382258  0.78020260  0.11623028    -0.10600
C753        C  0.83149581  0.77585042  0.14792342     0.11500
C754        C  0.87017621  0.77289354  0.15794968    -0.10600
H755        H  0.93034036  0.77032039  0.14455495     0.15500
H756        H  0.84766142  0.78329976  0.07028452     0.15500
H757        H  0.79413202  0.78264662  0.10795145     0.15500
H758        H  0.87673136  0.76953481  0.18225073     0.15500
C759        C  0.73340985  0.68470365  0.23936112    -0.10600
C760        C  0.73285796  0.66181490  0.23091364    -0.12100
C761        C  0.73709967  0.01506690  0.22661119    -0.13700
C762        C  0.74785435  0.01456551  0.25663996    -0.28900
H763        H  0.72859293  0.03376299  0.21568285     0.15300
H764        H  0.75653105  0.99588193  0.26752028     0.15900
C765        C  0.72563943  0.84750548  0.23240146    -0.10600
C766        C  0.72700724  0.87057593  0.22436823    -0.12100
C767        C  0.50009788  0.01615703  0.47914697    -0.13700
C768        C  0.48213393  0.00406644  0.99022740    -0.28900
H769        H  0.00250069  0.99392330  0.46240390     0.15300
H770        H  0.46157556  0.00189002  0.97128770     0.15900
C771        C  0.99080940  0.84994249  0.01600896    -0.10600
C772        C  0.98959211  0.87308338  0.02331343    -0.12100
C773        C  0.62847358  0.94662481  0.11067476    -0.13700
C774        C  0.59398720  0.93554306  0.11863558    -0.28900
H775        H  0.63127796  0.95706406  0.08857607     0.15300
H776        H  0.59123429  0.92486785  0.14058674     0.15900
C777        C  0.87646934  0.95170091  0.12362725    -0.13700
C778        C  0.84379629  0.93870807  0.11545283    -0.28500
H779        H  0.87608862  0.96382983  0.14441750     0.15300
H780        H  0.84406909  0.92645161  0.09476173     0.15900
O781        O  0.49911433  0.97072944  0.52021725    -0.55100
C782        C  0.99583724  0.89023541  0.52594773     0.77500
O783        O  0.53878567  0.95467134  0.62018251    -0.56300
C784        C  0.50530324  0.99379045  0.53043056     0.77500
C785        C  0.92648597  0.93553464  0.59949274     0.79900
Cd786      Cd  0.50100369  0.94747646  0.57132188     1.37500
O787        O  0.02284825  0.89449676  0.54513071    -0.55100
O788        O  0.93157732  0.95350191  0.57907155    -0.53900
C789        C  0.57235319  0.94953170  0.60904050     0.79900
O790        O  0.95453777  0.91929112  0.60298826    -0.56300
O791        O  0.97061832  0.90849358  0.52261024    -0.54700
O792        O  0.50986532  0.99559454  0.55946618    -0.54700
O793        O  0.57332913  0.94336408  0.58056819    -0.53900
O794        O  0.74918956  0.96952584  0.72497278    -0.55100
C795        C  0.75296268  0.89701840  0.70946732     0.77500
O796        O  0.71267826  0.93737665  0.62667955    -0.56300
C797        C  0.75286389  0.99280075  0.71407638     0.77500
C798        C  0.82308996  0.94787814  0.63450276     0.79900
Cd799      Cd  0.75214483  0.94650640  0.67387226     1.37500
O800        O  0.78004166  0.91384648  0.71202579    -0.55100
O801        O  0.81889604  0.93089603  0.65614241    -0.53900
C802        C  0.67999557  0.94531557  0.63716754     0.79900
O803        O  0.79473922  0.96379226  0.63065958    -0.56300
O804        O  0.72544750  0.90304148  0.69115411    -0.54700
O805        O  0.75603719  0.99477610  0.68489429    -0.54700
O806        O  0.68009232  0.95390764  0.66475577    -0.53900
O807        O  0.77075320  0.72837241  0.73726918    -0.55100
C808        C  0.75670944  0.81958688  0.72986377     0.77500
O809        O  0.77721308  0.76402801  0.65294641    -0.56300
C810        C  0.74495983  0.71342394  0.72580867     0.77500
C811        C  0.68639069  0.77610974  0.66422372     0.79900
Cd812      Cd  0.75022250  0.76734555  0.70432384     1.37500
O813        O  0.72791243  0.80512900  0.73743558    -0.55100
O814        O  0.68046366  0.76972085  0.69249609    -0.53900
C815        C  0.81132851  0.75750845  0.66132382     0.79900
O816        O  0.72153531  0.77919793  0.65555395    -0.56300
O817        O  0.78490533  0.80834694  0.71613405    -0.54700
O818        O  0.71874266  0.72445327  0.70970458    -0.54700
O819        O  0.81766332  0.75600241  0.69030379    -0.53900
O820        O  0.01465901  0.79796287  0.49492794    -0.55100
C821        C  0.00220874  0.70721730  0.50706086     0.77500
O822        O  0.52883278  0.77250558  0.58183635    -0.56300
C823        C  0.49757566  0.82256963  0.50914696     0.77500
C824        C  0.93337060  0.74987353  0.57101379     0.79900
Cd825      Cd  0.99579915  0.76008555  0.53015149     1.37500
O826        O  0.97303489  0.72142180  0.49940647    -0.55100
O827        O  0.92707964  0.75418077  0.54235447    -0.53900
C828        C  0.56426352  0.77540118  0.57390106     0.79900
O829        O  0.96859739  0.74923137  0.57981943    -0.56300
O830        O  0.03052063  0.71884701  0.51953790    -0.54700
O831        O  0.46875193  0.80983679  0.51979094    -0.54700
O832        O  0.57204412  0.77518459  0.54499602    -0.53900
O833        O  0.99982933  0.55698464  0.52035739    -0.55100
C834        C  0.00239104  0.63123191  0.53268052     0.77500
O835        O  0.96307391  0.59278460  0.61660392    -0.56300
C836        C  0.00093815  0.53412344  0.53280309     0.77500
C837        C  0.58634475  0.58746419  0.58764140     0.79900
Cd838      Cd  0.00264093  0.58251366  0.56916945     1.37500
O839        O  0.00264480  0.60882135  0.51968612    -0.55100
O840        O  0.58067296  0.59329344  0.55939668    -0.53900
C841        C  0.93000385  0.58712611  0.60566815     0.79900
O842        O  0.55607369  0.58182723  0.60343327    -0.56300
O843        O  0.49852858  0.63666202  0.55394524    -0.54700
O844        O  0.00270627  0.53339433  0.56216292    -0.54700
O845        O  0.92996351  0.57922532  0.57783632    -0.53900
O846        O  0.76139052  0.61543090  0.71772639    -0.55100
C847        C  0.75893120  0.53783855  0.70981940     0.77500
O848        O  0.70334091  0.59078094  0.62883215    -0.56300
C849        C  0.75032901  0.63645037  0.70399013     0.77500
C850        C  0.82243003  0.58460581  0.63392588     0.79900
Cd851      Cd  0.75149877  0.58577192  0.67228677     1.37500
O852        O  0.75233949  0.56030950  0.72181663    -0.55100
O853        O  0.82242895  0.59375994  0.66122431    -0.53900
C854        C  0.67377248  0.58307593  0.64427349     0.79900
O855        O  0.78984399  0.57658425  0.62411119    -0.56300
O856        O  0.76186771  0.53737201  0.68051474    -0.54700
O857        O  0.74035961  0.63426734  0.67587894    -0.54700
O858        O  0.67997174  0.57656132  0.67228407    -0.53900
O859        O  0.52477920  0.06740456  0.97012040    -0.55100
C860        C  0.00749599  0.13830884  0.95417665     0.77500
O861        O  0.54471356  0.06952455  0.88564452    -0.56300
C862        C  0.50384519  0.04695622  0.96753803     0.77500
C863        C  0.93303299  0.08871706  0.88468579     0.79900
Cd864      Cd  0.00596478  0.08844001  0.92066644     1.37500
O865        O  0.02273356  0.11745057  0.96554416    -0.55100
O866        O  0.96553182  0.09566836  0.87309450    -0.53900
C867        C  0.57359712  0.08467875  0.88972381     0.79900
O868        O  0.93365428  0.08166381  0.91299925    -0.56300
O869        O  0.99193160  0.13627677  0.92772163    -0.54700
O870        O  0.48152845  0.04631802  0.94418952    -0.54700
O871        O  0.56857254  0.10302371  0.90930094    -0.53900
O872        O  0.75271280  0.06237306  0.77287624    -0.55100
C873        C  0.75403599  0.13397533  0.78429759     0.77500
O874        O  0.70778127  0.10838573  0.86112355    -0.56300
C875        C  0.75316394  0.03919868  0.78455722     0.77500
C876        C  0.82520216  0.08266546  0.85824835     0.79900
Cd877      Cd  0.75241480  0.08639872  0.82259471     1.37500
O878        O  0.77469949  0.13111365  0.80832985    -0.55100
O879        O  0.79215790  0.07739897  0.87018930    -0.53900
C880        C  0.67950406  0.09251659  0.85853923     0.79900
O881        O  0.82507268  0.08906666  0.82972964    -0.56300
O882        O  0.73204694  0.11485033  0.77735535    -0.54700
O883        O  0.75377308  0.03764611  0.81392480    -0.54700
O884        O  0.68481407  0.07352075  0.83991078    -0.53900
O885        O  0.77644210  0.29922429  0.75221493    -0.55100
C886        C  0.76022139  0.20988821  0.76218445     0.77500
O887        O  0.78350900  0.26950517  0.83832408    -0.56300
C888        C  0.75078473  0.31499740  0.76299052     0.77500
C889        C  0.69146696  0.25273119  0.82796005     0.79900
Cd890      Cd  0.75572379  0.26204460  0.78772983     1.37500
O891        O  0.73345717  0.22568437  0.75337812    -0.55100
O892        O  0.68626350  0.25779994  0.79932786    -0.53900
C893        C  0.81836939  0.27158280  0.82859565     0.79900
O894        O  0.72642826  0.25133946  0.83733076    -0.56300
O895        O  0.78771382  0.21957081  0.77772665    -0.54700
O896        O  0.72500733  0.30516945  0.78064310    -0.54700
O897        O  0.82417876  0.26916053  0.79960339    -0.53900
O898        O  0.03650119  0.22931167  0.98227716    -0.55100
C899        C  0.01677179  0.32138751  0.97720269     0.77500
O900        O  0.52792109  0.25901261  0.90289758    -0.56300
C901        C  0.00710379  0.21515379  0.97625072     0.77500
C902        C  0.94614586  0.27592343  0.91308692     0.79900
Cd903      Cd  0.01081063  0.26876363  0.95267223     1.37500
O904        O  0.98751925  0.30717661  0.98407321    -0.55100
O905        O  0.94138504  0.27517153  0.94236486    -0.53900
C906        C  0.56253209  0.25716149  0.91292919     0.79900
O907        O  0.98077801  0.27379600  0.90280424    -0.56300
O908        O  0.04547569  0.30987392  0.96452223    -0.54700
O909        O  0.46157339  0.22810878  0.96554865    -0.54700
O910        O  0.56736877  0.26034427  0.94185374    -0.53900
O911        O  0.99640548  0.47102582  0.96973047    -0.55100
C912        C  0.01176258  0.39819262  0.95520275     0.77500
O913        O  0.97200741  0.43941862  0.87085276    -0.56300
C914        C  0.00424536  0.49409305  0.95964510     0.77500
C915        C  0.58047971  0.44839114  0.87997204     0.79900
Cd916      Cd  0.00908626  0.44737745  0.91982882     1.37500
O917        O  0.02824610  0.41887420  0.96506460    -0.55100
O918        O  0.55143026  0.46284743  0.87303477    -0.53900
C919        C  0.93829961  0.44452652  0.88159500     0.79900
O920        O  0.57584207  0.43265432  0.90279087    -0.56300
O921        O  0.48934004  0.39938120  0.92462049    -0.54700
O922        O  0.01390338  0.49576122  0.93127799    -0.54700
O923        O  0.93688085  0.45114186  0.90989681    -0.53900
O924        O  0.76843858  0.46624274  0.76721817    -0.55100
C925        C  0.75725424  0.39176868  0.78131412     0.77500
O926        O  0.79720769  0.44946036  0.86456492    -0.56300
C927        C  0.76092257  0.48876666  0.77879167     0.77500
C928        C  0.68645377  0.43753147  0.85152098     0.79900
Cd929      Cd  0.75962349  0.44074910  0.81633355     1.37500
O930        O  0.73774248  0.41191493  0.77275222    -0.55100
O931        O  0.71664535  0.42463187  0.85957550    -0.53900
C932        C  0.83092670  0.44524409  0.85327496     0.79900
O933        O  0.68984263  0.45189018  0.82738352    -0.56300
O934        O  0.77798244  0.39428768  0.80527970    -0.54700
O935        O  0.75410080  0.48921521  0.80770686    -0.54700
O936        O  0.83217150  0.43911658  0.82479345    -0.53900
C937        C  0.61750622  0.45009118  0.86206776    -0.13700
C938        C  0.64948164  0.43570678  0.86953974    -0.28900
H939        H  0.61846473  0.46366329  0.84231776     0.15300
H940        H  0.64866455  0.42231854  0.88945940     0.15900
C941        C  0.90291269  0.44268607  0.86184117    -0.13700
C942        C  0.86648105  0.44739463  0.87275909    -0.28900
H943        H  0.90703149  0.43710262  0.83765662     0.15300
H944        H  0.86239994  0.45286551  0.89698195     0.15900
C945        C  0.01399003  0.37306474  0.97146310    -0.10600
C946        C  0.01561680  0.34989353  0.97905685    -0.12100
C947        C  0.58877017  0.25022054  0.85955379    -0.10600
C948        C  0.59546629  0.25238108  0.89160727     0.11500
C949        C  0.63391459  0.25164990  0.90272892    -0.10600
C950        C  0.66527206  0.25029565  0.88192416    -0.10600
C951        C  0.65857381  0.24987355  0.84975922     0.11500
C952        C  0.62012167  0.24906314  0.83874533    -0.10600
H953        H  0.55930109  0.25044846  0.85042517     0.15500
H954        H  0.63978284  0.25308495  0.92733817     0.15500
H955        H  0.69476191  0.25082574  0.89097859     0.15500
H956        H  0.61428928  0.24846389  0.81407090     0.15500
C957        C  0.88910817  0.27744981  0.83885736    -0.10600
C958        C  0.85064126  0.27586027  0.85015853     0.11500
C959        C  0.84349659  0.27688345  0.88233116    -0.10600
C960        C  0.87461326  0.27802450  0.90299892    -0.10600
C961        C  0.91317345  0.27817884  0.89168240     0.11500
C962        C  0.92015902  0.27859443  0.85947966    -0.10600
H963        H  0.89529055  0.27694967  0.81416161     0.15500
H964        H  0.81395409  0.27590752  0.89157984     0.15500
H965        H  0.86857013  0.27784491  0.92773019     0.15500
H966        H  0.94971129  0.27891843  0.85017801     0.15500
C967        C  0.75299075  0.34335558  0.75926088    -0.10600
C968        C  0.75489931  0.36662030  0.76574964    -0.12100
C969        C  0.75488145  0.15849601  0.76682798    -0.10600
C970        C  0.75717191  0.18159215  0.75919016    -0.12100
C971        C  0.00827742  0.18656249  0.97762787    -0.10600
C972        C  0.00835562  0.16349334  0.96993213    -0.12100
C973        C  0.61092112  0.08079696  0.87239485    -0.13700
C974        C  0.64247069  0.09633692  0.87630093    -0.28900
H975        H  0.61236721  0.06459768  0.85582968     0.15300
H976        H  0.64101317  0.11265416  0.89271178     0.15900
C977        C  0.89676909  0.08905410  0.86573711    -0.13700
C978        C  0.86156138  0.08155045  0.87705922    -0.28900
H979        H  0.89917955  0.09587722  0.84181298     0.15300
H980        H  0.85906894  0.07489232  0.90103428     0.15900
C981        C  0.76279893  0.51328928  0.72870855    -0.13700
C982        C  0.75936249  0.51338362  0.75986202    -0.28900
H983        H  0.76789886  0.49467659  0.71663993     0.15300
H984        H  0.75388855  0.53198244  0.77186302     0.15900
C985        C  0.00020602  0.50950782  0.51426208    -0.13700
C986        C  0.00255994  0.51794960  0.97958849    -0.28900
H987        H  0.00100824  0.49054775  0.52659549     0.15300
H988        H  0.50422846  0.53678139  0.95988896     0.15900
C989        C  0.89387046  0.58965831  0.62479778    -0.13700
C990        C  0.85826585  0.58295097  0.61433752    -0.28900
H991        H  0.89684821  0.59693077  0.64839327     0.15300
H992        H  0.85531532  0.57541845  0.59085829     0.15900
C993        C  0.62637372  0.58767106  0.60089163    -0.13700
C994        C  0.63385883  0.58182182  0.63091418    -0.28900
H995        H  0.65030364  0.59314020  0.58547052     0.15300
H996        H  0.61000533  0.57617565  0.64631739     0.15900
C997        C  0.00176278  0.65581586  0.51522407    -0.10600
C998        C  0.00155329  0.67867871  0.50633844    -0.12100
C999        C  0.66314016  0.78330006  0.61027437    -0.10600
C1000       C  0.65441893  0.77881049  0.64184566     0.11500
C1001       C  0.61545529  0.77507257  0.65121561    -0.10600
C1002       C  0.58583114  0.77485400  0.62910500    -0.10600
C1003       C  0.59486169  0.77817887  0.59737093     0.11500
C1004       C  0.63361555  0.78290928  0.58819507    -0.10600
H1005       H  0.69301613  0.78628214  0.60244300     0.15500
H1006       H  0.60804120  0.77162022  0.67541368     0.15500
H1007       H  0.55603555  0.77126650  0.63676809     0.15500
H1008       H  0.64124185  0.78569258  0.56392846     0.15500
C1009       C  0.91000395  0.74461569  0.62536077    -0.10600
C1010       C  0.90144936  0.74746083  0.59361658     0.11500
C1011       C  0.86264482  0.75117818  0.58419992    -0.10600
C1012       C  0.83307946  0.75365054  0.60638033    -0.10600
C1013       C  0.84197175  0.75236257  0.63819204     0.11500
C1014       C  0.88043662  0.74710257  0.64754240    -0.10600
H1015       H  0.93980740  0.74164543  0.63315890     0.15500
H1016       H  0.85539228  0.75335620  0.55985588     0.15500
H1017       H  0.80344249  0.75740555  0.59861178     0.15500
H1018       H  0.88786900  0.74580660  0.67191987     0.15500
C1019       C  0.74746676  0.68487729  0.72698956    -0.10600
C1020       C  0.74921308  0.66184920  0.71924522    -0.12100
C1021       C  0.75339929  0.01660202  0.73389658    -0.13700
C1022       C  0.75279580  0.01513021  0.76513787    -0.28900
H1023       H  0.75461109  0.03590503  0.72234651     0.15300
H1024       H  0.75202662  0.99585542  0.77677146     0.15900
C1025       C  0.75554278  0.84812961  0.73215146    -0.10600
C1026       C  0.75434178  0.87145794  0.72501822    -0.12100
C1027       C  0.50551664  0.02541317  0.99107282    -0.13700
C1028       C  0.50688843  0.01750220  0.50986699    -0.28900
H1029       H  0.01326406  0.99938439  0.97204891     0.15300
H1030       H  0.51307723  0.03657797  0.52038433     0.15900
C1031       C  0.99064737  0.84184302  0.50343674    -0.10600
C1032       C  0.99288662  0.86505247  0.51033128    -0.12100
C1033       C  0.64411019  0.94437597  0.61779219    -0.13700
C1034       C  0.60812818  0.95081839  0.62854810    -0.28900
H1035       H  0.64749791  0.93782661  0.59387609     0.15300
H1036       H  0.60460886  0.95707130  0.65256246     0.15900
C1037       C  0.89014543  0.93333771  0.61858139    -0.13700
C1038       C  0.85896528  0.94958355  0.61477546    -0.28500
H1039       H  0.88917823  0.91788097  0.63642178     0.15300
H1040       H  0.85986420  0.96496934  0.59684725     0.15900
loop_ 
_geom_bond_atom_site_label_1 
_geom_bond_atom_site_label_2 
_geom_bond_distance 
_geom_bond_site_symmetry_2 
_ccdc_geom_bond_type 
O1            C4   1.264       .  A
O1           Cd6   2.485       .  S
C2           O11   1.263       .  A
C2            O7   1.263       .  A
C2          C252   1.441       .  S
O3            C9   1.265       .  A
O3           Cd6   2.502   1_455  S
C4           O12   1.264   1_655  A
C4          C248   1.478   1_565  S
C5           O10   1.265       .  A
C5            O8   1.265       .  A
C5          C257   1.486       .  S
Cd6          O13   2.496   1_655  S
Cd6          O12   2.474   1_655  S
Cd6         O531   2.461   1_655  S
Cd6         O527   2.496       .  S
Cd6         O530   2.493       .  S
Cd6         O528   2.517       .  S
O7         Cd526   2.499       .  S
O8         Cd526   2.502       .  S
C9           O13   1.265       .  A
C9          C254   1.485       .  S
O10        Cd526   2.499       .  S
O11        Cd526   2.471       .  S
O14          C17   1.266       .  A
O14         Cd19   2.503       .  S
C15          O24   1.262       .  A
C15          O20   1.264       .  A
C15         C246   1.440       .  S
O16          C22   1.265       .  A
O16         Cd19   2.501       .  S
C17          O25   1.265       .  A
C17         C241   1.481   1_565  S
C18          O23   1.263       .  A
C18          O21   1.265       .  A
C18         C258   1.485       .  S
Cd19         O26   2.494       .  S
Cd19         O25   2.474       .  S
Cd19         O24   2.463       .  S
Cd19         O20   2.500       .  S
Cd19         O23   2.498       .  S
Cd19         O21   2.517       .  S
C22          O26   1.265       .  A
C22         C253   1.485       .  S
O27          C30   1.259       .  A
O27         Cd32   2.431       .  S
C28          O37   1.259       .  A
C28          O33   1.266       .  A
C28         C245   1.437       .  S
O29          C35   1.266       .  A
O29         Cd32   2.402       .  S
C30          O38   1.266       .  A
C30         C239   1.437       .  S
C31          O36   1.266       .  A
C31          O34   1.267       .  A
C31         C220   1.463       .  S
Cd32         O39   2.434       .  S
Cd32         O38   2.501       .  S
Cd32         O37   2.435       .  S
Cd32         O33   2.502       .  S
Cd32         O36   2.419       .  S
Cd32         O34   2.411       .  S
C35          O39   1.268       .  A
C35         C233   1.466       .  S
O40         C563   1.260       .  A
O40         Cd45   2.452       .  S
C41          O50   1.264       .  A
C41          O46   1.260   1_556  A
C41         C218   1.435       .  S
O42          C48   1.266       .  A
O42        Cd565   2.391   1_455  S
C43          O51   1.259   1_655  A
C43         O560   1.268       .  A
C43         C771   1.438       .  S
C44          O49   1.265       .  A
C44          O47   1.267       .  A
C44         C230   1.466       .  S
Cd45         O50   2.482   1_554  S
Cd45         O46   2.446       .  S
Cd45         O49   2.429       .  S
Cd45         O47   2.428       .  S
Cd45        O562   2.385       .  S
Cd45        O572   2.460       .  S
Cd45        O571   2.491   1_554  S
C48          O52   1.269       .  A
C48         C223   1.463       .  S
O51        Cd565   2.429   1_455  S
O52        Cd565   2.427   1_455  S
O53          C56   1.264       .  A
O53         Cd58   2.491       .  S
C54          O59   1.264       .  A
C54         O583   1.265       .  A
C54         C217   1.439       .  S
O55          C61   1.265       .  A
O55         Cd58   2.488       .  S
C56          O64   1.262       .  A
C56         C205   1.473       .  S
C57          O62   1.265       .  A
C57          O60   1.266       .  A
C57         C213   1.492       .  S
Cd58         O65   2.503       .  S
Cd58         O64   2.459       .  S
Cd58         O59   2.477       .  S
Cd58        O583   2.468       .  S
Cd58        O582   2.496       .  S
Cd58        O580   2.507       .  S
O60        Cd578   2.515   1_455  S
C61          O65   1.265       .  A
C61         C209   1.484       .  S
O62        Cd578   2.517   1_455  S
O63         C574   1.263       .  A
O63        Cd578   2.512       .  S
O66          C69   1.263       .  A
O66         Cd71   2.499       .  S
C67          O76   1.264       .  A
C67          O72   1.265       .  A
C67         C201   1.474       .  S
O68          C74   1.267       .  A
O68         Cd71   2.527       .  S
C69          O77   1.264       .  A
C69         C240   1.442       .  S
C70          O75   1.264       .  A
C70          O73   1.264       .  A
C70         C210   1.485       .  S
Cd71         O78   2.487       .  S
Cd71         O77   2.474       .  S
Cd71         O76   2.474       .  S
Cd71         O72   2.472       .  S
Cd71         O75   2.507       .  S
Cd71         O73   2.502       .  S
C74          O78   1.266       .  A
C74         C214   1.490       .  S
O79          C82   1.265       .  A
O79        Cd604   2.489   1_455  S
C80          O89   1.264       .  A
C80          O85   1.264       .  A
C80         C192   1.441       .  S
O81          C87   1.265       .  A
O81        Cd604   2.499   1_455  S
C82          O90   1.264   1_455  A
C82         C247   1.480       .  S
C83          O88   1.265       .  A
C83          O86   1.265       .  A
C83         C197   1.489       .  S
Cd84         O89   2.492       .  S
Cd84         O85   2.473       .  S
Cd84         O88   2.503       .  S
Cd84         O86   2.512       .  S
Cd84        O599   2.488       .  S
Cd84        O601   2.504       .  S
Cd84        O611   2.501       .  S
Cd84        O610   2.482       .  S
C87          O91   1.265       .  A
C87         C193   1.484       .  S
O90        Cd604   2.484       .  S
O91        Cd604   2.491   1_455  S
O92          C95   1.266       .  A
O92         Cd97   2.491       .  S
C93         O102   1.264       .  A
C93          O98   1.265       .  A
C93         C189   1.442       .  S
O94         C100   1.265       .  A
O94         Cd97   2.488       .  S
C95         O103   1.264       .  A
C95         C242   1.483       .  S
C96         O101   1.264       .  A
C96          O99   1.263       .  A
C96         C198   1.488       .  S
Cd97        O104   2.504       .  S
Cd97        O103   2.493       .  S
Cd97        O102   2.464       .  S
Cd97         O98   2.505       .  S
Cd97        O101   2.537       .  S
Cd97         O99   2.498       .  S
C100        O104   1.266       .  A
C100        C194   1.483       .  S
O105        C108   1.266       .  A
O105       Cd110   2.497       .  S
C106        O115   1.259       .  A
C106        O111   1.267       .  A
C106        C190   1.438       .  S
O107        C113   1.264       .  A
O107       Cd110   2.403       .  S
C108        O116   1.260       .  A
C108        C187   1.437       .  S
C109        O114   1.264       .  A
C109        O112   1.269       .  A
C109        C171   1.465       .  S
Cd110       O117   2.432       .  S
Cd110       O116   2.442       .  S
Cd110       O115   2.427       .  S
Cd110       O111   2.508       .  S
Cd110       O114   2.400       .  S
Cd110       O112   2.439       .  S
C113        O117   1.269       .  A
C113        C178   1.464       .  S
O118        C121   1.267       .  A
O118       Cd123   2.507       .  S
C119        O128   1.260       .  A
C119        O124   1.267       .  A
C119        C166   1.435       .  S
O120        C126   1.264       .  A
O120       Cd643   2.391   1_455  S
C121        O649   1.258       .  A
C121        C191   1.436       .  S
C122        O127   1.264       .  A
C122        O125   1.269       .  A
C122        C181   1.464       .  S
Cd123       O128   2.424       .  S
Cd123       O124   2.494       .  S
Cd123       O127   2.389       .  S
Cd123       O125   2.443       .  S
Cd123       O640   2.403       .  S
Cd123       O650   2.442       .  S
Cd123       O649   2.420       .  S
C126        O130   1.269       .  A
C126        C168   1.466       .  S
O129        C641   1.259       .  A
O129       Cd643   2.436       .  S
O130       Cd643   2.457   1_455  S
O131        C134   1.265       .  A
O131       Cd136   2.478       .  S
C132        O137   1.263       .  A
C132        O661   1.263       .  A
C132        C165   1.439       .  S
O133        C139   1.264       .  A
O133       Cd136   2.488       .  S
C134        O142   1.264       .  A
C134        C206   1.474       .  S
C135        O140   1.265       .  A
C135        O138   1.265       .  A
C135        C157   1.487       .  S
Cd136       O143   2.505       .  S
Cd136       O142   2.462       .  S
Cd136       O137   2.501       .  S
Cd136       O661   2.458       .  S
Cd136       O660   2.490       .  S
Cd136       O658   2.501       .  S
O138       Cd656   2.498   1_455  S
C139        O143   1.265       .  A
C139        C161   1.484       .  S
O140       Cd656   2.509   1_455  S
O141        C652   1.264   1_455  A
O141       Cd656   2.474   1_455  S
O144        C147   1.264       .  A
O144       Cd149   2.463       .  S
C145        O154   1.264       .  A
C145        O150   1.263       .  A
C145        C188   1.440       .  S
O146        C152   1.263       .  A
O146       Cd149   2.496       .  S
C147        O155   1.265       .  A
C147        C202   1.475       .  S
C148        O153   1.263       .  A
C148        O151   1.266       .  A
C148        C158   1.483       .  S
Cd149       O156   2.515       .  S
Cd149       O155   2.483       .  S
Cd149       O154   2.460       .  S
Cd149       O150   2.498       .  S
Cd149       O153   2.471       .  S
Cd149       O151   2.519       .  S
C152        O156   1.265       .  A
C152        C162   1.485       .  S
C157        C158   1.347       .  D
C157        H159   1.087       .  S
C158        H160   1.087       .  S
C161        C162   1.347       .  D
C161        H163   1.088       .  S
C162        H164   1.088       .  S
C165        C166   1.207       .  T
C167        C168   1.404       .  A
C167        C172   1.390       .  A
C167        H173   1.084       .  S
C168        C169   1.402       .  A
C169        C170   1.394       .  A
C169        H174   1.082       .  S
C170        C171   1.406       .  A
C170        H175   1.084       .  S
C171        C172   1.400       .  A
C172        H176   1.082       .  S
C177        C178   1.401       .  A
C177        C182   1.390       .  A
C177        H183   1.082       .  S
C178        C179   1.405       .  A
C179        C180   1.393       .  A
C179        H184   1.084       .  S
C180        C181   1.401       .  A
C180        H185   1.082       .  S
C181        C182   1.404       .  A
C182        H186   1.084       .  S
C187        C188   1.208       .  T
C189        C190   1.209       .  T
C191        C192   1.208       .  T
C193        C194   1.347       .  D
C193        H195   1.088       .  S
C194        H196   1.088       .  S
C197        C198   1.350       .  D
C197        H199   1.084       .  S
C198        H200   1.084       .  S
C201        C202   1.344       .  D
C201        H203   1.087       .  S
C202        H204   1.087       .  S
C205        C466   1.343   1_554  D
C205        H207   1.087       .  S
C206        C465   1.344       .  D
C206        H728   1.087       .  S
H208        C726   1.087       .  S
C209        C210   1.348       .  D
C209        H211   1.088       .  S
C210        H212   1.088       .  S
C213        C214   1.350       .  D
C213        H215   1.084       .  S
C214        H216   1.084       .  S
C217        C218   1.207   1_554  T
C219        C220   1.404       .  A
C219        C224   1.393       .  A
C219        H225   1.084       .  S
C220        C221   1.401       .  A
C221        C222   1.389       .  A
C221        H226   1.082       .  S
C222        C223   1.403       .  A
C222        H227   1.084       .  S
C223        C224   1.402       .  A
C224        H228   1.082       .  S
C229        C230   1.404       .  A
C229        C234   1.394       .  A
C229        H235   1.084       .  S
C230        C231   1.401       .  A
C231        C232   1.391       .  A
C231        H236   1.082       .  S
C232        C233   1.403       .  A
C232        H237   1.084       .  S
C233        C234   1.403       .  A
C234        H238   1.082       .  S
C239        C240   1.209       .  T
C241        C242   1.346       .  D
C241        H243   1.087       .  S
C242        H244   1.087   1_545  S
C245        C246   1.208       .  T
C247        C508   1.345       .  D
C247        H769   1.087   1_545  S
C248        C507   1.346   1_654  D
C248        H250   1.086       .  S
H249        C767   1.087   1_565  S
C251        C563   1.438   1_556  S
C251        C252   1.209   1_556  T
C253        C254   1.348       .  D
C253        H255   1.085       .  S
C254        H256   1.085       .  S
C257        C258   1.348       .  D
C257        H259   1.087       .  S
C258        H260   1.088       .  S
O261        C264   1.266       .  A
O261       Cd266   2.499   1_455  S
C262        O271   1.263       .  A
C262        O267   1.263       .  A
C262        C512   1.443       .  S
O263        C269   1.265       .  A
O263       Cd266   2.501   1_455  S
C264        O272   1.264   1_455  A
C264        C508   1.480   1_565  S
C265        O270   1.265       .  A
C265        O268   1.265       .  A
C265        C517   1.487       .  S
Cd266       O273   2.516   1_655  S
Cd266       O272   2.478       .  S
Cd266       O791   2.506       .  S
Cd266       O787   2.483   1_655  S
Cd266       O790   2.498       .  S
Cd266       O788   2.516       .  S
O267       Cd786   2.497       .  S
O268       Cd786   2.513       .  S
C269        O273   1.266       .  A
C269        C514   1.488       .  S
O270       Cd786   2.501       .  S
O271       Cd786   2.481       .  S
O274        C277   1.264       .  A
O274       Cd279   2.482       .  S
C275        O284   1.264       .  A
C275        O280   1.264       .  A
C275        C506   1.442       .  S
O276        C282   1.265       .  A
O276       Cd279   2.504       .  S
C277        O285   1.263       .  A
C277        C501   1.477   1_565  S
C278        O283   1.265       .  A
C278        O281   1.264       .  A
C278        C518   1.487       .  S
Cd279       O286   2.511       .  S
Cd279       O285   2.480       .  S
Cd279       O284   2.462       .  S
Cd279       O280   2.510       .  S
Cd279       O283   2.506       .  S
Cd279       O281   2.504       .  S
C282        O286   1.265       .  A
C282        C513   1.488       .  S
O287        C290   1.268       .  A
O287       Cd292   2.509       .  S
C288        O297   1.260       .  A
C288        O293   1.266       .  A
C288        C505   1.438       .  S
O289        C295   1.264       .  A
O289       Cd292   2.406       .  S
C290        O298   1.258       .  A
C290        C499   1.435       .  S
C291        O296   1.265       .  A
C291        O294   1.269       .  A
C291        C480   1.464       .  S
Cd292       O299   2.450       .  S
Cd292       O298   2.414       .  S
Cd292       O297   2.441       .  S
Cd292       O293   2.499       .  S
Cd292       O296   2.393       .  S
Cd292       O294   2.438       .  S
C295        O299   1.269       .  A
C295        C493   1.467       .  S
O300        C823   1.266       .  A
O300       Cd305   2.503       .  S
C301        O310   1.259       .  A
C301        O306   1.266       .  A
C301        C478   1.442       .  S
O302        C308   1.265       .  A
O302       Cd825   2.410   1_455  S
C303        O820   1.268   1_655  A
C303        O311   1.259       .  A
C303       C1031   1.440       .  S
C304        O309   1.265       .  A
C304        O307   1.269       .  A
C304        C490   1.465       .  S
Cd305       O822   2.412       .  S
Cd305       O832   2.442       .  S
Cd305       O831   2.447       .  S
Cd305       O310   2.450       .  S
Cd305       O306   2.513       .  S
Cd305       O309   2.394       .  S
Cd305       O307   2.439       .  S
C308        O312   1.268       .  A
C308        C483   1.465       .  S
O311       Cd825   2.431       .  S
O312       Cd825   2.431   1_455  S
O313        C316   1.264       .  A
O313       Cd318   2.472       .  S
C314        O843   1.265       .  A
C314        O319   1.263       .  A
C314        C477   1.446       .  S
O315        C321   1.265       .  A
O315       Cd318   2.502       .  S
C316        O324   1.263       .  A
C316        C465   1.476       .  S
C317        O322   1.265       .  A
C317        O320   1.264       .  A
C317        C473   1.487       .  S
Cd318       O325   2.520       .  S
Cd318       O324   2.487       .  S
Cd318       O843   2.479       .  S
Cd318       O319   2.512       .  S
Cd318       O842   2.523       .  S
Cd318       O840   2.492       .  S
O320       Cd838   2.495       .  S
C321        O325   1.266       .  A
C321        C469   1.490       .  S
O322       Cd838   2.517       .  S
O323        C834   1.265       .  A
O323       Cd838   2.465       .  S
O326        C329   1.261       .  A
O326       Cd331   2.500       .  S
C327        O336   1.265       .  A
C327        O332   1.265       .  A
C327        C461   1.480       .  S
O328        C334   1.264       .  A
O328       Cd331   2.514       .  S
C329        O337   1.263       .  A
C329        C500   1.440       .  S
C330        O335   1.266       .  A
C330        O333   1.267       .  A
C330        C470   1.490       .  S
Cd331       O338   2.503       .  S
Cd331       O337   2.485       .  S
Cd331       O336   2.486       .  S
Cd331       O332   2.483       .  S
Cd331       O335   2.498       .  S
Cd331       O333   2.520       .  S
C334        O338   1.264       .  A
C334        C474   1.487       .  S
O339        C342   1.264       .  A
O339       Cd864   2.486       .  S
C340        O349   1.264       .  A
C340        O345   1.262       .  A
C340        C452   1.438       .  S
O341        C347   1.263       .  A
O341       Cd864   2.495       .  S
C342        O350   1.264   1_455  A
C342        C507   1.478       .  S
C343        O348   1.264       .  A
C343        O346   1.265       .  A
C343        C457   1.489       .  S
Cd344       O859   2.463       .  S
Cd344       O861   2.494       .  S
Cd344       O871   2.507       .  S
Cd344       O870   2.487       .  S
Cd344       O349   2.460       .  S
Cd344       O345   2.495       .  S
Cd344       O348   2.500       .  S
Cd344       O346   2.521       .  S
C347        O351   1.266       .  A
C347        C453   1.487       .  S
O350       Cd864   2.486   1_655  S
O351       Cd864   2.523       .  S
O352        C355   1.264       .  A
O352       Cd357   2.487       .  S
C353        O362   1.263       .  A
C353        O358   1.264       .  A
C353        C449   1.444       .  S
O354        C360   1.266       .  A
O354       Cd357   2.491       .  S
C355        O363   1.262       .  A
C355        C502   1.476       .  S
C356        O361   1.264       .  A
C356        O359   1.266       .  A
C356        C458   1.489       .  S
Cd357       O364   2.502       .  S
Cd357       O363   2.478       .  S
Cd357       O362   2.477       .  S
Cd357       O358   2.512       .  S
Cd357       O361   2.502       .  S
Cd357       O359   2.523       .  S
C360        O364   1.267       .  A
C360        C454   1.487       .  S
O365        C368   1.266       .  A
O365       Cd370   2.503       .  S
C366        O375   1.259       .  A
C366        O371   1.266       .  A
C366        C450   1.439       .  S
O367        C373   1.264       .  A
O367       Cd370   2.398       .  S
C368        O376   1.259       .  A
C368        C447   1.438       .  S
C369        O374   1.265       .  A
C369        O372   1.269       .  A
C369        C431   1.465       .  S
Cd370       O377   2.452       .  S
Cd370       O376   2.434       .  S
Cd370       O375   2.440       .  S
Cd370       O371   2.508       .  S
Cd370       O374   2.392       .  S
Cd370       O372   2.447       .  S
C373        O377   1.268       .  A
C373        C438   1.466       .  S
O378        C381   1.264       .  A
O378       Cd383   2.489       .  S
C379        O388   1.259       .  A
C379        O384   1.265       .  A
C379        C426   1.435       .  S
O380        C386   1.264       .  A
O380       Cd903   2.406       .  S
C381        O909   1.259       .  A
C381        C451   1.434       .  S
C382        O387   1.266       .  A
C382        O385   1.268       .  A
C382        C441   1.467       .  S
Cd383       O900   2.409       .  S
Cd383       O910   2.444       .  S
Cd383       O909   2.443       .  S
Cd383       O388   2.435       .  S
Cd383       O384   2.497       .  S
Cd383       O387   2.428       .  S
Cd383       O385   2.427       .  S
C386        O390   1.268       .  A
C386        C428   1.464       .  S
O389        C901   1.259   1_655  A
O389       Cd903   2.444   1_655  S
O390       Cd903   2.430       .  S
O391        C394   1.264       .  A
O391       Cd396   2.464       .  S
C392        O921   1.265       .  A
C392        O397   1.264       .  A
C392        C425   1.440       .  S
O393        C399   1.264       .  A
O393       Cd396   2.479       .  S
C394        O402   1.263       .  A
C394        C466   1.475       .  S
C395        O400   1.263       .  A
C395        O398   1.266       .  A
C395        C417   1.486       .  S
Cd396       O403   2.485       .  S
Cd396       O402   2.479       .  S
Cd396       O921   2.463       .  S
Cd396       O397   2.493       .  S
Cd396       O920   2.493       .  S
Cd396       O918   2.480       .  S
O398       Cd916   2.535       .  S
C399        O403   1.266       .  A
C399        C421   1.479       .  S
O400       Cd916   2.485       .  S
O401        C912   1.265   1_655  A
O401       Cd916   2.460   1_655  S
O404        C407   1.265       .  A
O404       Cd409   2.490       .  S
C405        O414   1.264       .  A
C405        O410   1.264       .  A
C405        C448   1.441       .  S
O406        C412   1.264       .  A
O406       Cd409   2.482       .  S
C407        O415   1.264       .  A
C407        C462   1.480       .  S
C408        O413   1.264       .  A
C408        O411   1.265       .  A
C408        C418   1.488       .  S
Cd409       O416   2.490       .  S
Cd409       O415   2.480       .  S
Cd409       O414   2.467       .  S
Cd409       O410   2.495       .  S
Cd409       O413   2.508       .  S
Cd409       O411   2.507       .  S
C412        O416   1.265       .  A
C412        C422   1.479       .  S
C417        C418   1.348       .  D
C417        H419   1.087       .  S
C418        H420   1.087       .  S
C421        C422   1.345       .  D
C421        H423   1.088       .  S
C422        H424   1.088       .  S
C425        C426   1.208       .  T
C427        C428   1.405       .  A
C427        C432   1.393       .  A
C427        H433   1.084       .  S
C428        C429   1.400       .  A
C429        C430   1.390       .  A
C429        H434   1.082       .  S
C430        C431   1.404       .  A
C430        H435   1.084       .  S
C431        C432   1.402       .  A
C432        H436   1.082       .  S
C437        C438   1.403       .  A
C437        C442   1.396       .  A
C437        H443   1.082       .  S
C438        C439   1.403       .  A
C439        C440   1.390       .  A
C439        H444   1.084       .  S
C440        C441   1.401       .  A
C440        H445   1.082       .  S
C441        C442   1.405       .  A
C442        H446   1.084       .  S
C447        C448   1.209       .  T
C449        C450   1.210       .  T
C451        C452   1.207       .  T
C453        C454   1.348       .  D
C453        H455   1.088       .  S
C454        H456   1.088       .  S
C457        C458   1.349       .  D
C457        H459   1.087       .  S
C458        H460   1.087       .  S
C461        C462   1.346       .  D
C461        H463   1.087       .  S
C462        H464   1.087       .  S
C465        H467   1.087       .  S
C466        H988   1.087       .  S
H468        C986   1.087       .  S
C469        C470   1.349       .  D
C469        H471   1.088       .  S
C470        H472   1.088       .  S
C473        C474   1.349       .  D
C473        H475   1.084       .  S
C474        H476   1.084       .  S
C477        C478   1.211       .  T
C479        C480   1.404       .  A
C479        C484   1.391       .  A
C479        H485   1.084       .  S
C480        C481   1.402       .  A
C481        C482   1.393       .  A
C481        H486   1.082       .  S
C482        C483   1.405       .  A
C482        H487   1.084       .  S
C483        C484   1.401       .  A
C484        H488   1.082       .  S
C489        C490   1.404       .  A
C489        C494   1.392       .  A
C489        H495   1.084       .  S
C490        C491   1.401       .  A
C491        C492   1.393       .  A
C491        H496   1.082       .  S
C492        C493   1.405       .  A
C492        H497   1.084       .  S
C493        C494   1.401       .  A
C494        H498   1.082       .  S
C499        C500   1.208       .  T
C501        C502   1.344       .  D
C501        H503   1.087       .  S
C502        H504   1.087       .  S
C505        C506   1.209       .  T
C507       H1029   1.086   1_545  S
C508        H510   1.087       .  S
H509       C1027   1.087   1_554  S
C511        C823   1.440       .  S
C511        C512   1.210       .  T
C513        C514   1.349       .  D
C513        H515   1.088       .  S
C514        H516   1.088       .  S
C517        C518   1.349       .  D
C517        H519   1.087       .  S
C518        H520   1.087       .  S
O521        C524   1.263       .  A
O521       Cd526   2.478       .  S
C522        O531   1.264   1_655  A
C522        O527   1.264       .  A
C522        C772   1.441       .  S
O523        C529   1.265       .  A
O523       Cd526   2.506       .  S
C524        O532   1.266       .  A
C524        C768   1.478   1_564  S
C525        O530   1.264       .  A
C525        O528   1.265       .  A
C525        C777   1.485       .  S
Cd526       O533   2.496       .  S
Cd526       O532   2.485       .  S
C529        O533   1.264       .  A
C529        C774   1.485       .  S
O534        C537   1.264       .  A
O534       Cd539   2.483       .  S
C535        O544   1.263       .  A
C535        O540   1.264       .  A
C535        C766   1.440       .  S
O536        C542   1.264       .  A
O536       Cd539   2.513       .  S
C537        O545   1.264       .  A
C537        C761   1.478   1_565  S
C538        O543   1.265       .  A
C538        O541   1.266       .  A
C538        C778   1.487       .  S
Cd539       O546   2.494       .  S
Cd539       O545   2.480       .  S
Cd539       O544   2.500       .  S
Cd539       O540   2.464       .  S
Cd539       O543   2.502       .  S
Cd539       O541   2.500       .  S
C542        O546   1.263       .  A
C542        C773   1.485       .  S
O547        C550   1.261       .  A
O547       Cd552   2.453       .  S
C548        O557   1.265       .  A
C548        O553   1.260       .  A
C548        C765   1.438       .  S
O549        C555   1.263       .  A
O549       Cd552   2.385       .  S
C550        O558   1.265       .  A
C550        C759   1.440       .  S
C551        O556   1.265       .  A
C551        O554   1.269       .  A
C551        C740   1.466       .  S
Cd552       O559   2.445       .  S
Cd552       O558   2.493       .  S
Cd552       O557   2.496       .  S
Cd552       O553   2.448       .  S
Cd552       O556   2.424       .  S
Cd552       O554   2.428       .  S
C555        O559   1.269       .  A
C555        C753   1.463       .  S
O560       Cd565   2.507       .  S
C561        O570   1.260       .  A
C561        O566   1.268   1_655  A
C561        C738   1.440       .  S
O562        C568   1.265       .  A
C563        O571   1.263   1_554  A
C564        O569   1.265       .  A
C564        O567   1.269       .  A
C564        C750   1.463       .  S
Cd565       O570   2.432       .  S
Cd565       O566   2.503   1_655  S
Cd565       O569   2.395       .  S
Cd565       O567   2.432       .  S
C568        O572   1.269       .  A
C568        C743   1.466       .  S
O573        C576   1.265   1_455  A
O573       Cd578   2.492   1_455  S
C574        O579   1.263   1_655  A
C574        C737   1.444       .  S
O575        C581   1.264       .  A
O575       Cd578   2.497       .  S
C576        O584   1.265       .  A
C576        C725   1.482       .  S
C577        O582   1.263       .  A
C577        O580   1.264       .  A
C577        C733   1.485       .  S
Cd578       O585   2.523       .  S
Cd578       O584   2.489       .  S
Cd578       O579   2.480   1_655  S
C581        O585   1.265       .  A
C581        C729   1.488       .  S
O586        C589   1.265       .  A
O586       Cd591   2.521       .  S
C587        O596   1.263       .  A
C587        O592   1.266       .  A
C587        C721   1.479       .  S
O588        C594   1.265       .  A
O588       Cd591   2.507       .  S
C589        O597   1.264       .  A
C589        C760   1.445       .  S
C590        O595   1.264       .  A
C590        O593   1.265       .  A
C590        C730   1.489       .  S
Cd591       O598   2.504       .  S
Cd591       O597   2.474       .  S
Cd591       O596   2.479       .  S
Cd591       O592   2.486       .  S
Cd591       O595   2.507       .  S
Cd591       O593   2.515       .  S
C594        O598   1.264       .  A
C594        C734   1.486       .  S
O599        C602   1.264       .  A
C600        O609   1.264   1_655  A
C600        O605   1.263       .  A
C600        C712   1.441       .  S
O601        C607   1.265       .  A
C602        O610   1.264       .  A
C602        C767   1.478       .  S
C603        O608   1.265       .  A
C603        O606   1.264       .  A
C603        C717   1.487       .  S
Cd604       O609   2.480   1_655  S
Cd604       O605   2.486       .  S
Cd604       O608   2.510       .  S
Cd604       O606   2.502       .  S
C607        O611   1.264       .  A
C607        C713   1.485       .  S
O612        C615   1.262       .  A
O612       Cd617   2.485       .  S
C613        O622   1.264       .  A
C613        O618   1.264       .  A
C613        C709   1.443       .  S
O614        C620   1.265       .  A
O614       Cd617   2.488       .  S
C615        O623   1.264       .  A
C615        C762   1.478       .  S
C616        O621   1.265       .  A
C616        O619   1.264       .  A
C616        C718   1.487       .  S
Cd617       O624   2.504       .  S
Cd617       O623   2.491       .  S
Cd617       O622   2.475       .  S
Cd617       O618   2.504       .  S
Cd617       O621   2.516       .  S
Cd617       O619   2.498       .  S
C620        O624   1.266       .  A
C620        C714   1.484       .  S
O625        C628   1.265       .  A
O625       Cd630   2.513       .  S
C626        O635   1.259       .  A
C626        O631   1.265       .  A
C626        C710   1.439       .  S
O627        C633   1.264       .  A
O627       Cd630   2.422       .  S
C628        O636   1.260       .  A
C628        C707   1.441       .  S
C629        O634   1.265       .  A
C629        O632   1.269       .  A
C629        C691   1.468       .  S
Cd630       O637   2.451       .  S
Cd630       O636   2.454       .  S
Cd630       O635   2.447       .  S
Cd630       O631   2.507       .  S
Cd630       O634   2.404       .  S
Cd630       O632   2.459       .  S
C633        O637   1.268       .  A
C633        C698   1.470       .  S
O638        C641   1.265   1_455  A
O638       Cd643   2.496   1_455  S
C639        O648   1.259   1_655  A
C639        O644   1.267       .  A
C639        C686   1.438       .  S
O640        C646   1.264       .  A
C641        C711   1.436       .  S
C642        O647   1.264       .  A
C642        O645   1.269       .  A
C642        C701   1.469       .  S
Cd643       O648   2.431   1_655  S
Cd643       O644   2.508       .  S
Cd643       O647   2.405       .  S
Cd643       O645   2.463       .  S
C646        O650   1.269       .  A
C646        C688   1.467       .  S
O651        C654   1.264       .  A
O651       Cd656   2.495       .  S
C652        O657   1.264       .  A
C652        C685   1.442       .  S
O653        C659   1.265       .  A
O653       Cd656   2.507       .  S
C654        O662   1.263       .  A
C654        C726   1.478       .  S
C655        O660   1.264       .  A
C655        O658   1.266       .  A
C655        C677   1.484       .  S
Cd656       O663   2.502       .  S
Cd656       O662   2.482       .  S
Cd656       O657   2.497       .  S
C659        O663   1.266       .  A
C659        C681   1.488       .  S
O664        C667   1.265       .  A
O664       Cd669   2.504       .  S
C665        O674   1.264       .  A
C665        O670   1.266       .  A
C665        C708   1.443       .  S
O666        C672   1.263       .  A
O666       Cd669   2.492       .  S
C667        O675   1.262       .  A
C667        C722   1.478       .  S
C668        O673   1.264       .  A
C668        O671   1.265       .  A
C668        C678   1.484       .  S
Cd669       O676   2.531       .  S
Cd669       O675   2.475       .  S
Cd669       O674   2.462       .  S
Cd669       O670   2.506       .  S
Cd669       O673   2.492       .  S
Cd669       O671   2.513       .  S
C672        O676   1.266       .  A
C672        C682   1.487       .  S
C677        C678   1.347       .  D
C677        H679   1.087       .  S
C678        H680   1.087       .  S
C681        C682   1.348       .  D
C681        H683   1.088       .  S
C682        H684   1.088       .  S
C685        C686   1.209       .  T
C687        C688   1.406       .  A
C687        C692   1.394       .  A
C687        H693   1.084       .  S
C688        C689   1.401       .  A
C689        C690   1.392       .  A
C689        H694   1.082       .  S
C690        C691   1.405       .  A
C690        H695   1.084       .  S
C691        C692   1.402       .  A
C692        H696   1.082       .  S
C697        C698   1.402       .  A
C697        C702   1.393       .  A
C697        H703   1.082       .  S
C698        C699   1.406       .  A
C699        C700   1.395       .  A
C699        H704   1.084       .  S
C700        C701   1.402       .  A
C700        H705   1.082       .  S
C701        C702   1.405       .  A
C702        H706   1.084       .  S
C707        C708   1.210       .  T
C709        C710   1.210       .  T
C711        C712   1.208       .  T
C713        C714   1.348       .  D
C713        H715   1.088       .  S
C714        H716   1.088       .  S
C717        C718   1.349       .  D
C717        H719   1.085       .  S
C718        H720   1.085       .  S
C721        C722   1.344       .  D
C721        H723   1.087       .  S
C722        H724   1.087       .  S
C725        C986   1.347   1_654  D
C725        H727   1.087       .  S
C726        C985   1.346   1_655  D
C729        C730   1.349       .  D
C729        H731   1.088       .  S
C730        H732   1.088       .  S
C733        C734   1.349       .  D
C733        H735   1.087       .  S
C734        H736   1.087       .  S
C737        C738   1.210       .  T
C739        C740   1.406       .  A
C739        C744   1.396       .  A
C739        H745   1.084       .  S
C740        C741   1.400       .  A
C741        C742   1.389       .  A
C741        H746   1.082       .  S
C742        C743   1.404       .  A
C742        H747   1.084       .  S
C743        C744   1.403       .  A
C744        H748   1.082       .  S
C749        C750   1.405       .  A
C749        C754   1.391       .  A
C749        H755   1.084       .  S
C750        C751   1.401       .  A
C751        C752   1.390       .  A
C751        H756   1.082       .  S
C752        C753   1.405       .  A
C752        H757   1.084       .  S
C753        C754   1.400       .  A
C754        H758   1.082       .  S
C759        C760   1.211       .  T
C761        C762   1.345       .  D
C761        H763   1.086       .  S
C762        H764   1.086   1_545  S
C765        C766   1.208       .  T
C767       C1028   1.345       .  D
C768       C1027   1.343       .  D
C768        H770   1.087       .  S
C771        C772   1.209       .  T
C773        C774   1.348       .  D
C773        H775   1.085       .  S
C774        H776   1.085       .  S
C777        C778   1.348       .  D
C777        H779   1.087       .  S
C778        H780   1.087       .  S
O781        C784   1.264       .  A
O781       Cd786   2.480       .  S
C782        O791   1.263       .  A
C782        O787   1.263   1_655  A
C782       C1032   1.444       .  S
O783        C789   1.266       .  A
O783       Cd786   2.505       .  S
C784        O792   1.264       .  A
C784       C1028   1.479   1_565  S
C785        O790   1.264       .  A
C785        O788   1.266       .  A
C785       C1037   1.488       .  S
Cd786       O793   2.514       .  S
Cd786       O792   2.488       .  S
C789        O793   1.266       .  A
C789       C1034   1.490       .  S
O794        C797   1.263       .  A
O794       Cd799   2.495       .  S
C795        O804   1.265       .  A
C795        O800   1.264       .  A
C795       C1026   1.444       .  S
O796        C802   1.265       .  A
O796       Cd799   2.493       .  S
C797        O805   1.262       .  A
C797       C1021   1.476   1_565  S
C798        O803   1.264       .  A
C798        O801   1.265       .  A
C798       C1038   1.489       .  S
Cd799       O806   2.522       .  S
Cd799       O805   2.482       .  S
Cd799       O804   2.479       .  S
Cd799       O800   2.500       .  S
Cd799       O803   2.505       .  S
Cd799       O801   2.523       .  S
C802        O806   1.267       .  A
C802       C1033   1.489       .  S
O807        C810   1.268       .  A
O807       Cd812   2.507       .  S
C808        O817   1.260       .  A
C808        O813   1.266       .  A
C808       C1025   1.440       .  S
O809        C815   1.263       .  A
O809       Cd812   2.395       .  S
C810        O818   1.259       .  A
C810       C1019   1.438       .  S
C811        O816   1.265       .  A
C811        O814   1.270       .  A
C811       C1000   1.466       .  S
Cd812       O819   2.444       .  S
Cd812       O818   2.425       .  S
Cd812       O817   2.445       .  S
Cd812       O813   2.497       .  S
Cd812       O816   2.390       .  S
Cd812       O814   2.444       .  S
C815        O819   1.268       .  A
C815       C1013   1.463       .  S
O820       Cd825   2.507   1_455  S
C821        O830   1.260       .  A
C821        O826   1.267   1_455  A
C821        C998   1.436       .  S
O822        C828   1.265       .  A
C823        O831   1.259       .  A
C824        O829   1.265       .  A
C824        O827   1.269       .  A
C824       C1010   1.461       .  S
Cd825       O830   2.428   1_655  S
Cd825       O826   2.494       .  S
Cd825       O829   2.383       .  S
Cd825       O827   2.423       .  S
C828        O832   1.269       .  A
C828       C1003   1.467       .  S
O833        C836   1.264   1_655  A
O833       Cd838   2.474   1_655  S
C834        O839   1.263       .  A
C834        C997   1.440       .  S
O835        C841   1.263       .  A
O835       Cd838   2.496   1_655  S
C836        O844   1.265       .  A
C836        C985   1.479       .  S
C837        O842   1.266       .  A
C837        O840   1.263       .  A
C837        C993   1.486       .  S
Cd838       O845   2.516   1_455  S
Cd838       O844   2.491       .  S
Cd838       O839   2.495       .  S
C841        O845   1.265       .  A
C841        C989   1.485       .  S
O846        C849   1.263       .  A
O846       Cd851   2.496       .  S
C847        O856   1.264       .  A
C847        O852   1.265       .  A
C847        C981   1.477       .  S
O848        C854   1.266       .  A
O848       Cd851   2.509       .  S
C849        O857   1.264       .  A
C849       C1020   1.442       .  S
C850        O855   1.264       .  A
C850        O853   1.265       .  A
C850        C990   1.484       .  S
Cd851       O858   2.492       .  S
Cd851       O857   2.472       .  S
Cd851       O856   2.480       .  S
Cd851       O852   2.475       .  S
Cd851       O855   2.489       .  S
Cd851       O853   2.502       .  S
C854        O858   1.264       .  A
C854        C994   1.486       .  S
O859        C862   1.263       .  A
C860        O869   1.265   1_455  A
C860        O865   1.264       .  A
C860        C972   1.443       .  S
O861        C867   1.265       .  A
C862        O870   1.266       .  A
C862       C1027   1.476       .  S
C863        O868   1.265       .  A
C863        O866   1.264       .  A
C863        C977   1.488       .  S
Cd864       O869   2.471   1_455  S
Cd864       O865   2.503       .  S
Cd864       O868   2.522   1_455  S
Cd864       O866   2.500   1_455  S
C867        O871   1.265       .  A
C867        C973   1.486       .  S
O872        C875   1.265       .  A
O872       Cd877   2.466       .  S
C873        O882   1.264       .  A
C873        O878   1.263       .  A
C873        C969   1.438       .  S
O874        C880   1.264       .  A
O874       Cd877   2.505       .  S
C875        O883   1.265       .  A
C875       C1022   1.477       .  S
C876        O881   1.265       .  A
C876        O879   1.266       .  A
C876        C978   1.488       .  S
Cd877       O884   2.510       .  S
Cd877       O883   2.483       .  S
Cd877       O882   2.504       .  S
Cd877       O878   2.450       .  S
Cd877       O881   2.510       .  S
Cd877       O879   2.501       .  S
C880        O884   1.264       .  A
C880        C974   1.486       .  S
O885        C888   1.267       .  A
O885       Cd890   2.505       .  S
C886        O895   1.260       .  A
C886        O891   1.265       .  A
C886        C970   1.434       .  S
O887        C893   1.265       .  A
O887       Cd890   2.414       .  S
C888        O896   1.259       .  A
C888        C967   1.436       .  S
C889        O894   1.265       .  A
C889        O892   1.269       .  A
C889        C951   1.466       .  S
Cd890       O897   2.428       .  S
Cd890       O896   2.421       .  S
Cd890       O895   2.434       .  S
Cd890       O891   2.488       .  S
Cd890       O894   2.407       .  S
Cd890       O892   2.433       .  S
C893        O897   1.268       .  A
C893        C958   1.465       .  S
O898        C901   1.265       .  A
O898       Cd903   2.504       .  S
C899        O908   1.259       .  A
C899        O904   1.264   1_455  A
C899        C946   1.437       .  S
O900        C906   1.265       .  A
C901        C971   1.439       .  S
C902        O907   1.265       .  A
C902        O905   1.269       .  A
C902        C961   1.464       .  S
Cd903       O908   2.449       .  S
Cd903       O904   2.491   1_455  S
Cd903       O907   2.395   1_455  S
Cd903       O905   2.436   1_455  S
C906        O910   1.268       .  A
C906        C948   1.467       .  S
O911        C914   1.264   1_655  A
O911       Cd916   2.497   1_655  S
C912        O917   1.264       .  A
C912        C945   1.440       .  S
O913        C919   1.264       .  A
O913       Cd916   2.503   1_655  S
C914        O922   1.264       .  A
C914        C986   1.482       .  S
C915        O920   1.264       .  A
C915        O918   1.263       .  A
C915        C937   1.479       .  S
Cd916       O923   2.514   1_455  S
Cd916       O922   2.494       .  S
Cd916       O917   2.494       .  S
C919        O923   1.265       .  A
C919        C941   1.487       .  S
O924        C927   1.266       .  A
O924       Cd929   2.478       .  S
C925        O934   1.263       .  A
C925        O930   1.263       .  A
C925        C968   1.440       .  S
O926        C932   1.265       .  A
O926       Cd929   2.492       .  S
C927        O935   1.264       .  A
C927        C982   1.476       .  S
C928        O933   1.264       .  A
C928        O931   1.264       .  A
C928        C938   1.481       .  S
Cd929       O936   2.510       .  S
Cd929       O935   2.468       .  S
Cd929       O934   2.465       .  S
Cd929       O930   2.503       .  S
Cd929       O933   2.490       .  S
Cd929       O931   2.494       .  S
C932        O936   1.266       .  A
C932        C942   1.486       .  S
C937        C938   1.346       .  D
C937        H939   1.085       .  S
C938        H940   1.085       .  S
C941        C942   1.348       .  D
C941        H943   1.088       .  S
C942        H944   1.088       .  S
C945        C946   1.208       .  T
C947        C948   1.404       .  A
C947        C952   1.392       .  A
C947        H953   1.084       .  S
C948        C949   1.402       .  A
C949        C950   1.393       .  A
C949        H954   1.082       .  S
C950        C951   1.404       .  A
C950        H955   1.084       .  S
C951        C952   1.401       .  A
C952        H956   1.082       .  S
C957        C958   1.401       .  A
C957        C962   1.390       .  A
C957        H963   1.082       .  S
C958        C959   1.405       .  A
C959        C960   1.393       .  A
C959        H964   1.084       .  S
C960        C961   1.402       .  A
C960        H965   1.082       .  S
C961        C962   1.404       .  A
C962        H966   1.084       .  S
C967        C968   1.208       .  T
C969        C970   1.207       .  T
C971        C972   1.209       .  T
C973        C974   1.348       .  D
C973        H975   1.088       .  S
C974        H976   1.088       .  S
C977        C978   1.350       .  D
C977        H979   1.084       .  S
C978        H980   1.084       .  S
C981        C982   1.344       .  D
C981        H983   1.087       .  S
C982        H984   1.087       .  S
C985        H987   1.087       .  S
C989        C990   1.347       .  D
C989        H991   1.088       .  S
C990        H992   1.088       .  S
C993        C994   1.347       .  D
C993        H995   1.084       .  S
C994        H996   1.084       .  S
C997        C998   1.208       .  T
C999       C1000   1.404       .  A
C999       C1004   1.391       .  A
C999       H1005   1.084       .  S
C1000      C1001   1.402       .  A
C1001      C1002   1.394       .  A
C1001      H1006   1.082       .  S
C1002      C1003   1.406       .  A
C1002      H1007   1.084       .  S
C1003      C1004   1.401       .  A
C1004      H1008   1.082       .  S
C1009      C1010   1.404       .  A
C1009      C1014   1.391       .  A
C1009      H1015   1.084       .  S
C1010      C1011   1.401       .  A
C1011      C1012   1.390       .  A
C1011      H1016   1.082       .  S
C1012      C1013   1.404       .  A
C1012      H1017   1.084       .  S
C1013      C1014   1.401       .  A
C1014      H1018   1.082       .  S
C1019      C1020   1.209       .  T
C1021      C1022   1.345       .  D
C1021      H1023   1.087       .  S
C1022      H1024   1.087   1_545  S
C1025      C1026   1.210       .  T
C1028      H1030   1.087       .  S
C1031      C1032   1.210       .  T
C1033      C1034   1.350       .  D
C1033      H1035   1.088       .  S
C1034      H1036   1.088       .  S
C1037      C1038   1.349       .  D
C1037      H1039   1.087       .  S
C1038      H1040   1.087       .  S
