geometry optimzed in LAMMPS
_audit_creation_date              2020-12-01 
_audit_creation_method            'lammps2cif' 
_symmetry_space_group_name_H-M    'P1' 
_symmetry_Int_Tables_number       1 
_symmetry_cell_setting            triclinic 
loop_ 
_symmetry_equiv_pos_as_xyz 
  x,y,z 
_cell_length_a                    35.94289115 
_cell_length_b                    35.64796037593355 
_cell_length_c                    33.16148226736599 
_cell_angle_alpha                 89.80675133142717 
_cell_angle_beta                  90.69622156945525 
_cell_angle_gamma                 121.09655848678105 
loop_ 
_atom_site_label 
_atom_site_type_symbol 
_atom_site_fract_x 
_atom_site_fract_y 
_atom_site_fract_z 
_atom_site_charge 
C1          C  0.32816575  0.66099729  0.21101464     0.46200
H2          H  0.32191031  0.66011201  0.17803157    -0.02800
C3          C  0.34331304  0.66366850  0.28825050     0.46200
H4          H  0.34958109  0.66462449  0.32126742    -0.02800
C5          C  0.28862942  0.62795957  0.23502850    -0.16500
C6          C  0.36396168  0.65139241  0.22257808    -0.16300
C7          C  0.34253042  0.70546143  0.23071860    -0.16700
C8          C  0.29666488  0.62968852  0.27563121    -0.16600
C9          C  0.37158310  0.65260387  0.26321179    -0.16200
C10         C  0.35072093  0.70670764  0.27129246    -0.16500
C11         C  0.65977910  0.33373637  0.20977163     0.46200
H12         H  0.65443731  0.33411217  0.17672442    -0.02800
C13         C  0.67261124  0.33263517  0.28709748     0.46200
H14         H  0.67828857  0.33254159  0.32012561    -0.02800
C15         C  0.62810906  0.28989104  0.23012256    -0.16500
C16         C  0.70491407  0.34236341  0.22126707    -0.16300
C17         C  0.65573262  0.36828253  0.23324610    -0.16700
C18         C  0.63488193  0.28967751  0.27087651    -0.16600
C19         C  0.71166966  0.34185713  0.26187186    -0.16200
C20         C  0.66195864  0.36723165  0.27391012    -0.16500
O21         O  0.95712633  0.41043224  0.45561299    -0.71000
O22         O  0.03944095  0.45557496  0.04178339    -0.71300
O23         O  0.95255531  0.41317450  0.03600894    -0.71100
O24         O  0.04404089  0.45270294  0.46148740    -0.71100
O25         O  0.05269278  0.51773799  0.46445100    -0.71100
O26         O  0.94976756  0.47176439  0.02426097    -0.71100
O27         O  0.03498502  0.51411516  0.04245714    -0.71000
O28         O  0.96767736  0.47553698  0.44566229    -0.71200
V29         V  0.99829656  0.43396591  0.49861978     1.35200
V30         V  0.00115609  0.49370608  0.49424622     1.35200
C31         C  0.94939376  0.43574896  0.43524498     0.78200
C32         C  0.05051755  0.49229302  0.05733235     0.78300
C33         C  0.93473307  0.43528647  0.04164779     0.78100
C34         C  0.06527250  0.49272223  0.45218787     0.78100
O35         O  0.53138168  0.49479278  0.04739246    -0.74000
O36         O  0.49710731  0.52584315  0.45037211    -0.71300
O37         O  0.53988172  0.48462035  0.46912671    -0.71100
O38         O  0.48880120  0.53595203  0.02858278    -0.71100
O39         O  0.55250613  0.59464305  0.03675588    -0.71100
O40         O  0.59725920  0.54917306  0.46070179    -0.71100
O41         O  0.55349733  0.59163560  0.45615844    -0.71000
O42         O  0.59617583  0.55206166  0.04141212    -0.71200
V43         V  0.51533522  0.51131406  0.49885215     1.35200
V44         V  0.57394780  0.57093671  0.49871799     1.35200
C45         C  0.57030545  0.51712045  0.05976490     0.78200
C46         C  0.51826755  0.56501765  0.43827915     0.78300
C47         C  0.57683045  0.50846318  0.45383232     0.78100
C48         C  0.51226015  0.57354413  0.04382818     0.78100
O49         O  0.46351840  0.95697349  0.46847251    -0.71000
O50         O  0.49057730  0.03904922  0.05187315    -0.71300
O51         O  0.45018560  0.95295711  0.04802213    -0.71100
O52         O  0.50454837  0.04459606  0.47273149    -0.71100
O53         O  0.44339935  0.04156974  0.46100030    -0.71100
O54         O  0.38849864  0.94919524  0.03729716    -0.71100
O55         O  0.42995461  0.03737331  0.04062304    -0.71000
O56         O  0.40212400  0.95365535  0.45741121    -0.71200
V57         V  0.47594453  0.99829041  0.00986013     1.35200
V58         V  0.41706482  0.99542817  0.99926537     1.35200
C59         C  0.42815128  0.94104232  0.44900764     0.78200
C60         C  0.46501640  0.05203547  0.06045010     0.78300
C61         C  0.41057408  0.93625161  0.05615675     0.78100
C62         C  0.48359414  0.05918564  0.45454267     0.78100
C63         C  0.55103975  0.20978241  0.16168059     0.21100
C64         C  0.52229408  0.19347409  0.12860100    -0.38800
C65         C  0.50427283  0.14878061  0.12039690     0.20100
C66         C  0.51471981  0.12272852  0.14315893     0.22700
C67         C  0.54317186  0.13893864  0.17624150    -0.39300
C68         C  0.56066858  0.18329632  0.18464144     0.21500
N69         N  0.57381597  0.25135027  0.17492122    -0.32600
C70         C  0.59734246  0.25080137  0.20685471    -0.10100
C71         C  0.59038098  0.20909674  0.21352530    -0.28900
N72         N  0.49819997  0.08319833  0.12624498    -0.45500
C73         C  0.47712081  0.08401315  0.09254511    -0.04800
C74         C  0.47939397  0.12398099  0.08808056    -0.22200
H75         H  0.51559107  0.21429029  0.10989326     0.19600
H76         H  0.55218355  0.11883639  0.19333068     0.18400
H77         H  0.60583623  0.19918334  0.23582708     0.14700
H78         H  0.46872079  0.13499826  0.06240766     0.14600
H79         H  0.57337659  0.27833049  0.16311143     0.32700
H80         H  0.50386245  0.05843249  0.13524086     0.35500
C81         C  0.59497603  0.20745767  0.34655017     0.21100
C82         C  0.59833929  0.18317059  0.37797756    -0.38800
C83         C  0.55901218  0.15097278  0.39430217     0.20100
C84         C  0.51917632  0.14372148  0.38087199     0.22700
C85         C  0.51577741  0.16809621  0.34916748    -0.39300
C86         C  0.55533921  0.20007876  0.33232517     0.21500
N87         N  0.62782835  0.23975649  0.32611975    -0.32600
C88         C  0.60919487  0.25277549  0.29821291    -0.10100
C89         C  0.56397301  0.22897776  0.30104150    -0.28900
N90         N  0.48666974  0.11037733  0.40115971    -0.45500
C91         C  0.50633292  0.09627579  0.42706106    -0.04800
C92         C  0.55130466  0.12090997  0.42379097    -0.22200
H93         H  0.62934214  0.18860703  0.38862129     0.19600
H94         H  0.48474524  0.16222591  0.33812324     0.18400
H95         H  0.54080904  0.23286558  0.28314011     0.14700
H96         H  0.57513826  0.11689718  0.44039386     0.14600
H97         H  0.66089894  0.25211809  0.33081618     0.32700
H98         H  0.45334975  0.09737539  0.39699803     0.35500
C99         C  0.79920288  0.35310492  0.32231995     0.21100
C100        C  0.81847294  0.34149680  0.35292787    -0.38800
C101        C  0.85932694  0.37494102  0.36639787     0.20100
C102        C  0.87930326  0.41702473  0.35097362     0.22700
C103        C  0.86035360  0.42846117  0.31970764    -0.39300
C104        C  0.81960389  0.39475904  0.30586838     0.21500
N105        N  0.75878655  0.32838972  0.30734719    -0.32600
C106        C  0.75360040  0.35427147  0.28087031    -0.10100
C107        C  0.79079907  0.39581171  0.27877898    -0.28900
N108        N  0.91537535  0.44400662  0.37244114    -0.45500
C109        C  0.91830610  0.41870087  0.40142152    -0.04800
C110        C  0.88436239  0.37537634  0.39822960    -0.22200
H111        H  0.80199309  0.30931354  0.36652953     0.19600
H112        H  0.87526593  0.46157617  0.30831969     0.18400
H113        H  0.79496128  0.42372203  0.26185525     0.14700
H114        H  0.87711609  0.34863535  0.41849671     0.14600
H115        H  0.73568778  0.29646712  0.31561476     0.32700
H116        H  0.93553526  0.47783309  0.36885306     0.35500
C117        C  0.78112793  0.38464460  0.14213405     0.21100
C118        C  0.80425767  0.41316976  0.11073199    -0.38800
C119        C  0.83990181  0.41122983  0.09739638     0.20100
C120        C  0.85132668  0.38266291  0.11369985     0.22700
C121        C  0.82853223  0.35452817  0.14555753    -0.39300
C122        C  0.79315233  0.35688587  0.15925931     0.21500
N123        N  0.74694920  0.38139467  0.16104263    -0.32600
C124        C  0.73797185  0.35229953  0.19100863    -0.10100
C125        C  0.76569171  0.33587432  0.19076044    -0.28900
N126        N  0.88644781  0.38715691  0.09546662    -0.45500
C127        C  0.89747709  0.41914863  0.06786721    -0.04800
C128        C  0.86944261  0.43510095  0.06818611    -0.22200
H129        H  0.79547195  0.43558552  0.09799294     0.19600
H130        H  0.83798462  0.33292171  0.15900305     0.18400
H131        H  0.76630202  0.31262315  0.21142331     0.14700
H132        H  0.87052812  0.46060408  0.04950760     0.14600
H133        H  0.73183002  0.39917656  0.15499660     0.32700
H134        H  0.90232212  0.37013437  0.10180721     0.35500
C135        C  0.60759054  0.42365901  0.18713327     0.21100
C136        C  0.57329384  0.42851586  0.17340083    -0.38800
C137        C  0.58402786  0.46073744  0.14398928     0.20100
C138        C  0.62588866  0.48668674  0.12974001     0.22700
C139        C  0.66019115  0.48173503  0.14338665    -0.39300
C140        C  0.64931652  0.44907519  0.17239987     0.21500
N141        N  0.60500860  0.39282128  0.21229700    -0.32600
C142        C  0.64522161  0.39846533  0.21312001    -0.10100
C143        C  0.67378679  0.43319586  0.18884007    -0.28900
N144        N  0.62681242  0.51228687  0.09946269    -0.45500
C145        C  0.58510714  0.50179633  0.09392812    -0.04800
C146        C  0.55757009  0.47010140  0.12130942    -0.22200
H147        H  0.54028680  0.40737920  0.18348403     0.19600
H148        H  0.69249450  0.50053780  0.13100606     0.18400
H149        H  0.70745217  0.44431095  0.18296061     0.14700
H150        H  0.52256131  0.45420514  0.12278839     0.14600
H151        H  0.57725023  0.36810378  0.22641187     0.32700
H152        H  0.65353122  0.53328928  0.08186052     0.35500
C153        C  0.62983094  0.40611819  0.35638998     0.21100
C154        C  0.60564896  0.40164630  0.39056670    -0.38800
C155        C  0.60664901  0.43954055  0.40272558     0.20100
C156        C  0.63075402  0.47924636  0.38302733     0.22700
C157        C  0.65487963  0.48366825  0.34858021    -0.39300
C158        C  0.65303960  0.44535438  0.33578608     0.21500
N159        N  0.63144129  0.37410241  0.33730094    -0.32600
C160        C  0.65496309  0.39277057  0.30389062    -0.10100
C161        C  0.66940390  0.43725627  0.30182881    -0.28900
N162        N  0.62445429  0.50974665  0.39965906    -0.45500
C163        C  0.59545670  0.48868122  0.42934968    -0.04800
C164        C  0.58373109  0.44506132  0.43233534    -0.22200
H165        H  0.58613130  0.37053761  0.40561693     0.19600
H166        H  0.67232380  0.51413654  0.33212336     0.18400
H167        H  0.68841079  0.46020065  0.27839776     0.14700
H168        H  0.56067801  0.42048891  0.45275337     0.14600
H169        H  0.61580240  0.34108795  0.34547286     0.32700
H170        H  0.63740490  0.54212205  0.39030719     0.35500
C171        C  0.13343078  0.51945502  0.13146760     0.21100
C172        C  0.16681831  0.51673209  0.15095270    -0.38800
C173        C  0.19358780  0.55155126  0.17698901     0.20100
C174        C  0.18749629  0.58641530  0.18320013     0.22700
C175        C  0.15421756  0.58924089  0.16355410    -0.39300
C176        C  0.12750547  0.55444670  0.13742659     0.21500
N177        N  0.10549843  0.49198694  0.10336296    -0.32600
C178        C  0.08190569  0.50980684  0.09103152    -0.10100
C179        C  0.09451981  0.54868516  0.11170410    -0.28900
N180        N  0.21929532  0.61690460  0.20686936    -0.45500
C181        C  0.24569126  0.60129989  0.21569483    -0.04800
C182        C  0.23091040  0.56075393  0.19758886    -0.22200
H183        H  0.17242558  0.49018259  0.14523065     0.19600
H184        H  0.15034559  0.61718723  0.16728285     0.18400
H185        H  0.08244164  0.57064802  0.10729055     0.14700
H186        H  0.24677566  0.54192043  0.19756573     0.14600
H187        H  0.10386673  0.46387000  0.09201799     0.32700
H188        H  0.22418016  0.64749969  0.21471646     0.35500
C189        C  0.20901216  0.55578402  0.33713282     0.21100
C190        C  0.17182728  0.51644911  0.34807121    -0.38800
C191        C  0.15046156  0.51891754  0.38200273     0.20100
C192        C  0.16503778  0.55768355  0.40310307     0.22700
C193        C  0.20271408  0.59662510  0.39282217    -0.39300
C194        C  0.22405559  0.59408516  0.35911047     0.21500
N195        N  0.23317519  0.56314554  0.30430052    -0.32600
C196        C  0.26360506  0.60630838  0.30594863    -0.10100
C197        C  0.25941893  0.62658935  0.33975339    -0.28900
N198        N  0.13676099  0.55269328  0.43140884    -0.45500
C199        C  0.10424412  0.51047026  0.42842921    -0.04800
C200        C  0.11167092  0.48797816  0.39849869    -0.22200
H201        H  0.15949166  0.48669127  0.33055081     0.19600
H202        H  0.21357371  0.62704233  0.40885041     0.18400
H203        H  0.27854213  0.66091398  0.34796693     0.14700
H204        H  0.09036728  0.45448232  0.38861602     0.14600
H205        H  0.22905547  0.54048999  0.28219710     0.32700
H206        H  0.13879333  0.57676867  0.45077157     0.35500
C207        C  0.44246911  0.59940962  0.09473196     0.21100
C208        C  0.40253953  0.59469633  0.10446807    -0.38800
C209        C  0.40276151  0.61692635  0.13911584     0.20100
C210        C  0.43989505  0.64175144  0.16237031     0.22700
C211        C  0.48008007  0.64709559  0.15224453    -0.39300
C212        C  0.47992715  0.62501149  0.11738913     0.21500
N213        N  0.44989970  0.57892720  0.06505775    -0.32600
C214        C  0.49235488  0.59176931  0.06868801    -0.10100
C215        C  0.51251576  0.62093849  0.10060372    -0.28900
N216        N  0.43090816  0.65746467  0.19503565    -0.45500
C217        C  0.38782202  0.64246621  0.19236527    -0.04800
C218        C  0.36918384  0.61752782  0.15774180    -0.22200
H219        H  0.37322784  0.57421833  0.08700669     0.19600
H220        H  0.50895867  0.66600092  0.17072159     0.18400
H221        H  0.54568420  0.63516192  0.11134488     0.14700
H222        H  0.33541718  0.60093174  0.14826897     0.14600
H223        H  0.42724364  0.55666011  0.04426349     0.32700
H224        H  0.45278450  0.67726451  0.21757334     0.35500
C225        C  0.45936165  0.57839342  0.35799300     0.21100
C226        C  0.42662962  0.56529943  0.32843917    -0.38800
C227        C  0.42190287  0.59892995  0.31197889     0.20100
C228        C  0.44728119  0.64206727  0.32465295     0.22700
C229        C  0.48016194  0.65516773  0.35388806    -0.39300
C230        C  0.48544128  0.62175534  0.36973522     0.21500
N231        N  0.46872028  0.55255502  0.38002455    -0.32600
C232        C  0.50125751  0.57984913  0.40555438    -0.10100
C233        C  0.51277926  0.62324020  0.39985037    -0.28900
N234        N  0.43391456  0.66710830  0.30716549    -0.45500
C235        C  0.40025952  0.63990539  0.28279712    -0.04800
C236        C  0.39175853  0.59714234  0.28475636    -0.22200
H237        H  0.40570154  0.53135150  0.31966988     0.19600
H238        H  0.49948816  0.68874193  0.36426755     0.18400
H239        H  0.53626681  0.65166581  0.41700652     0.14700
H240        H  0.36531569  0.56831415  0.27033229     0.14600
H241        H  0.45312238  0.51842826  0.37863819     0.32700
H242        H  0.44587065  0.70028025  0.31253034     0.35500
C243        C  0.34063790  0.78196986  0.16238709     0.21100
C244        C  0.32700459  0.79615548  0.12886498    -0.38800
C245        C  0.35413931  0.84038978  0.11859884     0.20100
C246        C  0.39188559  0.86797885  0.14016056     0.22700
C247        C  0.40502751  0.85402945  0.17390125    -0.39300
C248        C  0.37801982  0.81009942  0.18406014     0.21500
N249        N  0.32278758  0.74091150  0.17643928    -0.32600
C250        C  0.34896268  0.74342936  0.20737252    -0.10100
C251        C  0.38377020  0.78596198  0.21287367    -0.28900
N252        N  0.41504222  0.90648977  0.12156245    -0.45500
C253        C  0.39204493  0.90363587  0.08798268    -0.04800
C254        C  0.35342170  0.86326438  0.08522731    -0.22200
H255        H  0.29861660  0.77398482  0.11101974     0.19600
H256        H  0.43524243  0.87528703  0.18985456     0.18400
H257        H  0.41075580  0.79740343  0.23392221     0.14700
H258        H  0.33028418  0.85095108  0.06039217     0.14600
H259        H  0.29498225  0.71292364  0.16544172     0.32700
H260        H  0.44592934  0.93222566  0.12986601     0.35500
C261        C  0.36467459  0.79834583  0.32728812     0.21100
C262        C  0.35433593  0.82880135  0.34158578    -0.38800
C263        C  0.38302213  0.85832427  0.37069775     0.20100
C264        C  0.41943349  0.85780538  0.38402845     0.22700
C265        C  0.42956848  0.82721417  0.36996567    -0.39300
C266        C  0.40061820  0.79738108  0.34135999     0.21500
N267        N  0.34228035  0.76627699  0.30020653    -0.32600
C268        C  0.36407993  0.74476069  0.29752224    -0.10100
C269        C  0.40037253  0.76288627  0.32282961    -0.28900
N270        N  0.44076142  0.88822931  0.41262024    -0.45500
C271        C  0.41746984  0.90785511  0.41796434    -0.04800
C272        C  0.38130585  0.89031862  0.39228468    -0.22200
H273        H  0.32573646  0.82900503  0.33133199     0.19600
H274        H  0.45748083  0.82619430  0.38105676     0.18400
H275        H  0.42354973  0.75242607  0.32687094     0.14700
H276        H  0.35656887  0.89897851  0.39047470     0.14600
H277        H  0.31372476  0.75903768  0.28492743     0.32700
H278        H  0.46858248  0.89421333  0.42852433     0.35500
C279        C  0.32816545  0.66099694  0.71101459     0.46200
H280        H  0.32190989  0.66011175  0.67803155    -0.02800
C281        C  0.34331274  0.66366809  0.78825045     0.46200
H282        H  0.34958077  0.66462397  0.82126736    -0.02800
C283        C  0.28862910  0.62795927  0.73502850    -0.16500
C284        C  0.36396143  0.65139203  0.72257804    -0.16300
C285        C  0.34253010  0.70546105  0.73071844    -0.16700
C286        C  0.29666452  0.62968820  0.77563116    -0.16600
C287        C  0.37158282  0.65260346  0.76321171    -0.16200
C288        C  0.35072061  0.70670729  0.77129233    -0.16500
C289        C  0.65977928  0.33373661  0.70977094     0.46200
H290        H  0.65443787  0.33411253  0.67672363    -0.02800
C291        C  0.67261136  0.33263554  0.78709686     0.46200
H292        H  0.67828853  0.33254189  0.82012500    -0.02800
C293        C  0.62810921  0.28989131  0.73012203    -0.16500
C294        C  0.70491430  0.34236364  0.72126675    -0.16300
C295        C  0.65573263  0.36828267  0.73324556    -0.16700
C296        C  0.63488221  0.28967786  0.77087607    -0.16600
C297        C  0.71166974  0.34185745  0.76187153    -0.16200
C298        C  0.66195866  0.36723186  0.77390963    -0.16500
O299        O  0.95712629  0.41043280  0.95561299    -0.71000
O300        O  0.03944098  0.45557474  0.54178343    -0.71300
O301        O  0.95255533  0.41317426  0.53600891    -0.71100
O302        O  0.04404082  0.45270339  0.96148743    -0.71100
O303        O  0.05269280  0.51773844  0.96445115    -0.71100
O304        O  0.94976745  0.47176404  0.52426058    -0.71100
O305        O  0.03498489  0.51411488  0.54245679    -0.71000
O306        O  0.96767735  0.47553755  0.94566271    -0.71200
V307        V  0.99829654  0.43396631  0.99861980     1.35200
V308        V  0.00115616  0.49370651  0.99424653     1.35200
C309        C  0.94939388  0.43574978  0.93524508     0.78200
C310        C  0.05051753  0.49229301  0.55733217     0.78300
C311        C  0.93473303  0.43528615  0.54164756     0.78100
C312        C  0.06527253  0.49272275  0.95218808     0.78100
O313        O  0.53138149  0.49479289  0.54739265    -0.74000
O314        O  0.49710725  0.52584323  0.95037219    -0.71300
O315        O  0.53988166  0.48462031  0.96912644    -0.71100
O316        O  0.48880087  0.53595196  0.52858254    -0.71100
O317        O  0.55250575  0.59464304  0.53675565    -0.71100
O318        O  0.59725914  0.54917315  0.96070156    -0.71100
O319        O  0.55349726  0.59163573  0.95615857    -0.71000
O320        O  0.59617555  0.55206180  0.54141225    -0.71200
V321        V  0.51533533  0.51131407  0.99885211     1.35200
V322        V  0.57394797  0.57093675  0.99871798     1.35200
C323        C  0.57030538  0.51712069  0.55976501     0.78200
C324        C  0.51826743  0.56501774  0.93827929     0.78300
C325        C  0.57683028  0.50846322  0.95383197     0.78100
C326        C  0.51225967  0.57354407  0.54382777     0.78100
O327        O  0.46351856  0.95697351  0.96847215    -0.71000
O328        O  0.49057725  0.03904946  0.55187334    -0.71300
O329        O  0.45018552  0.95295724  0.54802253    -0.71100
O330        O  0.50454862  0.04459610  0.97273135    -0.71100
O331        O  0.44339957  0.04156971  0.96099989    -0.71100
O332        O  0.38849845  0.94919504  0.53729733    -0.71100
O333        O  0.42995430  0.03737308  0.54062337    -0.71000
O334        O  0.40212403  0.95365517  0.95741096    -0.71200
V335        V  0.47594439  0.99829048  0.50986042     1.35200
V336        V  0.41706465  0.99542814  0.49926568     1.35200
C337        C  0.42815140  0.94104221  0.94900735     0.78200
C338        C  0.46501608  0.05203537  0.56045041     0.78300
C339        C  0.41057397  0.93625165  0.55615711     0.78100
C340        C  0.48359452  0.05918575  0.95454249     0.78100
C341        C  0.55103953  0.20978280  0.66168025     0.21100
C342        C  0.52229352  0.19347461  0.62860077    -0.38800
C343        C  0.50427233  0.14878101  0.62039668     0.20100
C344        C  0.51471958  0.12272901  0.64315872     0.22700
C345        C  0.54317209  0.13893949  0.67624085    -0.39300
C346        C  0.56066885  0.18329697  0.68464087     0.21500
N347        N  0.57381573  0.25135069  0.67492096    -0.32600
C348        C  0.59734259  0.25080157  0.70685435    -0.10100
C349        C  0.59038144  0.20909706  0.71352482    -0.28900
N350        N  0.49819981  0.08319890  0.62624494    -0.45500
C351        C  0.47712036  0.08401319  0.59254526    -0.04800
C352        C  0.47939316  0.12398096  0.58808061    -0.22200
H353        H  0.51558999  0.21429066  0.60989331     0.19600
H354        H  0.55218440  0.11883755  0.69332966     0.18400
H355        H  0.60583675  0.19918353  0.73582653     0.14700
H356        H  0.46871942  0.13499785  0.56240783     0.14600
H357        H  0.57337578  0.27832995  0.66311154     0.32700
H358        H  0.50386257  0.05843258  0.63524104     0.35500
C359        C  0.59497652  0.20745816  0.84655031     0.21100
C360        C  0.59834001  0.18317140  0.87797794    -0.38800
C361        C  0.55901285  0.15097350  0.89430234     0.20100
C362        C  0.51917671  0.14372163  0.88087157     0.22700
C363        C  0.51577763  0.16809614  0.84916683    -0.39300
C364        C  0.55533958  0.20007883  0.83232485     0.21500
N365        N  0.62782905  0.23975723  0.82611994    -0.32600
C366        C  0.60919533  0.25277585  0.79821271    -0.10100
C367        C  0.56397353  0.22897769  0.80104106    -0.28900
N368        N  0.48667087  0.11037761  0.90115942    -0.45500
C369        C  0.50633346  0.09627613  0.92706099    -0.04800
C370        C  0.55130532  0.12091070  0.92379123    -0.22200
H371        H  0.62934280  0.18860790  0.88862193     0.19600
H372        H  0.48474532  0.16222524  0.83812189     0.18400
H373        H  0.54080947  0.23286554  0.78313988     0.14700
H374        H  0.57513888  0.11689806  0.94039434     0.14600
H375        H  0.66089879  0.25211874  0.83081669     0.32700
H376        H  0.45334946  0.09737479  0.89699736     0.35500
C377        C  0.79920290  0.35310541  0.82231986     0.21100
C378        C  0.81847326  0.34149760  0.85292777    -0.38800
C379        C  0.85932733  0.37494213  0.86639795     0.20100
C380        C  0.87930313  0.41702565  0.85097393     0.22700
C381        C  0.86035320  0.42846166  0.81970784    -0.39300
C382        C  0.81960347  0.39475928  0.80586841     0.21500
N383        N  0.75878601  0.32838912  0.80734722    -0.32600
C384        C  0.75360041  0.35427172  0.78087007    -0.10100
C385        C  0.79079878  0.39581212  0.77877891    -0.28900
N386        N  0.91537574  0.44400861  0.87244134    -0.45500
C387        C  0.91830620  0.41870192  0.90142167    -0.04800
C388        C  0.88436271  0.37537736  0.89822975    -0.22200
H389        H  0.80199374  0.30931457  0.86652954     0.19600
H390        H  0.87526507  0.46157630  0.80831950     0.18400
H391        H  0.79496095  0.42372247  0.76185505     0.14700
H392        H  0.87711677  0.34863615  0.91849659     0.14600
H393        H  0.73568914  0.29646812  0.81561366     0.32700
H394        H  0.93553424  0.47783321  0.86885348     0.35500
C395        C  0.78112794  0.38464443  0.64213364     0.21100
C396        C  0.80425753  0.41316943  0.61073135    -0.38800
C397        C  0.83990169  0.41122943  0.59739598     0.20100
C398        C  0.85132682  0.38266281  0.61369965     0.22700
C399        C  0.82853263  0.35452832  0.64555752    -0.39300
C400        C  0.79315272  0.35688594  0.65925924     0.21500
N401        N  0.74694967  0.38139399  0.66104248    -0.32600
C402        C  0.73797213  0.35229957  0.69100852    -0.10100
C403        C  0.76569218  0.33587449  0.69076053    -0.28900
N404        N  0.88644822  0.38715670  0.59546658    -0.45500
C405        C  0.89747712  0.41914828  0.56786696    -0.04800
C406        C  0.86944241  0.43510011  0.56818565    -0.22200
H407        H  0.79547159  0.43558516  0.59799224     0.19600
H408        H  0.83798511  0.33292210  0.65900329     0.18400
H409        H  0.76630248  0.31262341  0.71142345     0.14700
H410        H  0.87052815  0.46060340  0.54950732     0.14600
H411        H  0.73182938  0.39917691  0.65499613     0.32700
H412        H  0.90232235  0.37013489  0.60180712     0.35500
C413        C  0.60759020  0.42365914  0.68713331     0.21100
C414        C  0.57329335  0.42851590  0.67340106    -0.38800
C415        C  0.58402746  0.46073762  0.64398938     0.20100
C416        C  0.62588824  0.48668683  0.62974001     0.22700
C417        C  0.66019059  0.48173508  0.64338654    -0.39300
C418        C  0.64931606  0.44907519  0.67239969     0.21500
N419        N  0.60500876  0.39282165  0.71229679    -0.32600
C420        C  0.64522154  0.39846547  0.71311973    -0.10100
C421        C  0.67378654  0.43319593  0.68883973    -0.28900
N422        N  0.62681302  0.51228758  0.59946214    -0.45500
C423        C  0.58510700  0.50179649  0.59392814    -0.04800
C424        C  0.55756988  0.47010179  0.62130957    -0.22200
H425        H  0.54028632  0.40737889  0.68348444     0.19600
H426        H  0.69249385  0.50053792  0.63100617     0.18400
H427        H  0.70745190  0.44431101  0.68296030     0.14700
H428        H  0.52256099  0.45420517  0.62278836     0.14600
H429        H  0.57724993  0.36810370  0.72641191     0.32700
H430        H  0.65353017  0.53328845  0.58186092     0.35500
C431        C  0.62983067  0.40611808  0.85638997     0.21100
C432        C  0.60564850  0.40164588  0.89056669    -0.38800
C433        C  0.60664872  0.43954037  0.90272523     0.20100
C434        C  0.63075407  0.47924659  0.88302694     0.22700
C435        C  0.65487980  0.48366874  0.84857978    -0.39300
C436        C  0.65303950  0.44535458  0.83578611     0.21500
N437        N  0.63144138  0.37410262  0.83730074    -0.32600
C438        C  0.65496306  0.39277054  0.80389056    -0.10100
C439        C  0.66940348  0.43725601  0.80182900    -0.28900
N440        N  0.62445411  0.50974656  0.89965891    -0.45500
C441        C  0.59545658  0.48868132  0.92934938    -0.04800
C442        C  0.58373085  0.44506140  0.93233485    -0.22200
H443        H  0.58613072  0.37053705  0.90561696     0.19600
H444        H  0.67232405  0.51413719  0.83212287     0.18400
H445        H  0.68840999  0.46020026  0.77839789     0.14700
H446        H  0.56067762  0.42048905  0.95275272     0.14600
H447        H  0.61580232  0.34108779  0.84547255     0.32700
H448        H  0.63740527  0.54212260  0.89030755     0.35500
C449        C  0.13343057  0.51945525  0.63146762     0.21100
C450        C  0.16681807  0.51673246  0.65095282    -0.38800
C451        C  0.19358752  0.55155136  0.67698906     0.20100
C452        C  0.18749599  0.58641520  0.68320029     0.22700
C453        C  0.15421726  0.58924077  0.66355417    -0.39300
C454        C  0.12750517  0.55444681  0.63742666     0.21500
N455        N  0.10549837  0.49198781  0.60336331    -0.32600
C456        C  0.08190543  0.50980685  0.59103159    -0.10100
C457        C  0.09451957  0.54868536  0.61170408    -0.28900
N458        N  0.21929504  0.61690446  0.70686952    -0.45500
C459        C  0.24569092  0.60129966  0.71569492    -0.04800
C460        C  0.23091003  0.56075383  0.69758878    -0.22200
H461        H  0.17242551  0.49018308  0.64523047     0.19600
H462        H  0.15034529  0.61718705  0.66728267     0.18400
H463        H  0.08244114  0.57064796  0.60729052     0.14700
H464        H  0.24677488  0.54191996  0.69756581     0.14600
H465        H  0.10386685  0.46386936  0.59201759     0.32700
H466        H  0.22417979  0.64749938  0.71471681     0.35500
C467        C  0.20901180  0.55578391  0.83713298     0.21100
C468        C  0.17182692  0.51644916  0.84807155    -0.38800
C469        C  0.15046130  0.51891790  0.88200312     0.20100
C470        C  0.16503774  0.55768394  0.90310342     0.22700
C471        C  0.20271412  0.59662534  0.89282232    -0.39300
C472        C  0.22405541  0.59408506  0.85911046     0.21500
N473        N  0.23317461  0.56314486  0.80430028    -0.32600
C474        C  0.26360480  0.60630798  0.80594869    -0.10100
C475        C  0.25941863  0.62658914  0.83975330    -0.28900
N476        N  0.13676097  0.55269409  0.93140938    -0.45500
C477        C  0.10424407  0.51047081  0.92842953    -0.04800
C478        C  0.11167064  0.48797864  0.89849907    -0.22200
H479        H  0.15949100  0.48669130  0.83055124     0.19600
H480        H  0.21357413  0.62704270  0.90885035     0.18400
H481        H  0.27854181  0.66091372  0.84796714     0.14700
H482        H  0.09036672  0.45448281  0.88861642     0.14600
H483        H  0.22905491  0.54048969  0.78219788     0.32700
H484        H  0.13879341  0.57676880  0.95077185     0.35500
C485        C  0.44246842  0.59940968  0.59473126     0.21100
C486        C  0.40253884  0.59469636  0.60446748    -0.38800
C487        C  0.40276140  0.61692651  0.63911555     0.20100
C488        C  0.43989498  0.64175144  0.66237015     0.22700
C489        C  0.48007995  0.64709578  0.65224425    -0.39300
C490        C  0.47992654  0.62501158  0.61738850     0.21500
N491        N  0.44989885  0.57892694  0.56505672    -0.32600
C492        C  0.49235430  0.59176946  0.56868717    -0.10100
C493        C  0.51251490  0.62093842  0.60060289    -0.28900
N494        N  0.43090837  0.65746483  0.69503593    -0.45500
C495        C  0.38782201  0.64246621  0.69236520    -0.04800
C496        C  0.36918398  0.61752802  0.65774175    -0.22200
H497        H  0.37322673  0.57421801  0.58700673     0.19600
H498        H  0.50895859  0.66600101  0.67072131     0.18400
H499        H  0.54568344  0.63516219  0.61134384     0.14700
H500        H  0.33541743  0.60093246  0.64826867     0.14600
H501        H  0.42724367  0.55666061  0.54426298     0.32700
H502        H  0.45278396  0.67726400  0.71757295     0.35500
C503        C  0.45936146  0.57839314  0.85799300     0.21100
C504        C  0.42662926  0.56529888  0.82843931    -0.38800
C505        C  0.42190262  0.59892950  0.81197892     0.20100
C506        C  0.44728104  0.64206700  0.82465278     0.22700
C507        C  0.48016201  0.65516773  0.85388771    -0.39300
C508        C  0.48544127  0.62175525  0.86973488     0.21500
N509        N  0.46872014  0.55255479  0.88002469    -0.32600
C510        C  0.50125738  0.57984909  0.90555442    -0.10100
C511        C  0.51277919  0.62324010  0.89985006    -0.28900
N512        N  0.43391444  0.66710803  0.80716514    -0.45500
C513        C  0.40025921  0.63990490  0.78279703    -0.04800
C514        C  0.39175817  0.59714181  0.78475652    -0.22200
H515        H  0.40570163  0.53135096  0.81966964     0.19600
H516        H  0.49948833  0.68874204  0.86426700     0.18400
H517        H  0.53626736  0.65166596  0.91700554     0.14700
H518        H  0.36531510  0.56831345  0.77033291     0.14600
H519        H  0.45312207  0.51842821  0.87863883     0.32700
H520        H  0.44587076  0.70027996  0.81252933     0.35500
C521        C  0.34063745  0.78196965  0.66238694     0.21100
C522        C  0.32700429  0.79615544  0.62886502    -0.38800
C523        C  0.35413902  0.84038986  0.61859897     0.20100
C524        C  0.39188533  0.86797883  0.64016061     0.22700
C525        C  0.40502699  0.85402919  0.67390122    -0.39300
C526        C  0.37801908  0.81009904  0.68405987     0.21500
N527        N  0.32278666  0.74091086  0.67643889    -0.32600
C528        C  0.34896197  0.74342885  0.70737217    -0.10100
C529        C  0.38376921  0.78596142  0.71287320    -0.28900
N530        N  0.41504213  0.90648993  0.62156267    -0.45500
C531        C  0.39204470  0.90363585  0.58798288    -0.04800
C532        C  0.35342138  0.86326434  0.58522743    -0.22200
H533        H  0.29861632  0.77398490  0.61101983     0.19600
H534        H  0.43524168  0.87528677  0.68985476     0.18400
H535        H  0.41075477  0.79740292  0.73392167     0.14700
H536        H  0.33028409  0.85095068  0.56039205     0.14600
H537        H  0.29498186  0.71292398  0.66544164     0.32700
H538        H  0.44592894  0.93222594  0.62986617     0.35500
C539        C  0.36467373  0.79834517  0.82728814     0.21100
C540        C  0.35433496  0.82880064  0.84158567    -0.38800
C541        C  0.38302164  0.85832341  0.87069781     0.20100
C542        C  0.41943311  0.85780459  0.88402857     0.22700
C543        C  0.42956798  0.82721336  0.86996585    -0.39300
C544        C  0.40061749  0.79738043  0.84135998     0.21500
N545        N  0.34227904  0.76627624  0.80020601    -0.32600
C546        C  0.36407937  0.74476020  0.79752213    -0.10100
C547        C  0.40037180  0.76288568  0.82282950    -0.28900
N548        N  0.44076123  0.88822869  0.91262036    -0.45500
C549        C  0.41746989  0.90785459  0.91796441    -0.04800
C550        C  0.38130600  0.89031799  0.89228478    -0.22200
H551        H  0.32573534  0.82900416  0.83133210     0.19600
H552        H  0.45748008  0.82619314  0.88105734     0.18400
H553        H  0.42354917  0.75242558  0.82687057     0.14700
H554        H  0.35656892  0.89897764  0.89047512     0.14600
H555        H  0.31372494  0.75903706  0.78492790     0.32700
H556        H  0.46858238  0.89421282  0.92852444     0.35500
loop_ 
_geom_bond_atom_site_label_1 
_geom_bond_atom_site_label_2 
_geom_bond_distance 
_geom_bond_site_symmetry_2 
_ccdc_geom_bond_type 
C1            H2   1.111       .  S
C1            C7   1.536       .  S
C1            C6   1.537       .  S
C1            C5   1.527       .  S
C3            H4   1.112       .  S
C3            C9   1.521       .  S
C3            C8   1.530       .  S
C3           C10   1.522       .  S
C5            C8   1.369       .  D
C5          C181   1.470       .  S
C6            C9   1.368       .  D
C6          C217   1.465       .  S
C7           C10   1.370       .  D
C7          C250   1.469       .  S
C8          C196   1.455       .  S
C9          C235   1.467       .  S
C10         C268   1.467       .  S
C11          H12   1.112       .  S
C11          C17   1.529       .  S
C11          C16   1.530       .  S
C11          C15   1.539       .  S
C13          H14   1.112       .  S
C13          C19   1.526       .  S
C13          C18   1.522       .  S
C13          C20   1.529       .  S
C15          C18   1.371       .  D
C15          C70   1.468       .  S
C16          C19   1.367       .  D
C16         C124   1.461       .  S
C17          C20   1.368       .  D
C17         C142   1.468       .  S
C18          C88   1.471       .  S
C19         C106   1.468       .  S
C20         C160   1.459       .  S
O21          V29   1.898       .  S
O21          C31   1.264       .  A
O22         V307   1.900   1_454  S
O22          C32   1.264       .  A
O23         V307   1.891   1_554  S
O23          C33   1.262       .  A
O24          V29   1.891   1_455  S
O24          C34   1.261       .  A
O25          V30   1.882       .  S
O25          C34   1.260       .  A
O26         V308   1.887   1_654  S
O26          C33   1.262       .  A
O27         V308   1.900   1_554  S
O27          C32   1.265       .  A
O28          V30   1.902   1_655  S
O28          C31   1.264       .  A
V29         O300   1.900   1_655  S
V29         O301   1.891       .  S
V29          V30   2.083   1_655  T
V30         O304   1.887   1_455  S
V30         O305   1.900       .  S
C31         C109   1.466       .  S
C32         C178   1.469       .  S
C33         C127   1.452       .  S
C34         C199   1.446       .  S
O35         V321   1.895   1_554  S
O35          C45   1.264       .  A
O36          V43   1.898       .  S
O36          C46   1.263       .  A
O37          V43   1.884       .  S
O37          C47   1.261       .  A
O38         V321   1.883   1_554  S
O38          C48   1.261       .  A
O39         V322   1.898   1_554  S
O39          C48   1.263       .  A
O40          V44   1.897       .  S
O40          C47   1.263       .  A
O41          V44   1.899       .  S
O41          C46   1.265       .  A
O42         V322   1.902   1_554  S
O42          C45   1.264       .  A
V43         O313   1.895       .  S
V43         O316   1.883       .  S
V43          V44   2.081       .  T
V44         O317   1.898       .  S
V44         O320   1.902       .  S
C45         C145   1.465       .  S
C46         C232   1.465       .  S
C47         C163   1.452       .  S
C48         C214   1.453       .  S
O49         V335   1.890       .  S
O49          C59   1.262       .  A
O50          V57   1.880   1_545  S
O50          C60   1.259       .  A
O51          V57   1.881       .  S
O51          C61   1.260       .  A
O52         V335   1.887   1_545  S
O52          C62   1.262       .  A
O53         V336   1.902   1_545  S
O53          C62   1.264       .  A
O54          V58   1.905   1_554  S
O54          C61   1.264       .  A
O55          V58   1.901   1_544  S
O55          C60   1.263       .  A
O56         V336   1.898       .  S
O56          C59   1.264       .  A
V57         O327   1.890   1_554  S
V57         O330   1.887   1_564  S
V57          V58   2.091   1_554  T
V58         O331   1.902   1_565  S
V58         O334   1.898       .  S
C59         C271   1.462       .  S
C60          C73   1.451       .  S
C61         C253   1.455       .  S
C62          C91   1.463       .  S
C63          C68   1.385       .  A
C63          C64   1.402       .  A
C63          N69   1.342       .  A
C64          C65   1.402       .  A
C64          H75   1.082       .  S
C65          C74   1.377       .  A
C65          C66   1.386       .  A
C66          C67   1.396       .  A
C66          N72   1.336       .  A
C67          C68   1.395       .  A
C67          H76   1.083       .  S
C68          C71   1.368       .  A
N69          C70   1.354       .  A
N69          H79   1.045       .  S
C70          C71   1.392       .  A
C71          H77   1.082       .  S
N72          C73   1.351       .  A
N72          H80   1.045       .  S
C73          C74   1.392       .  A
C74          H78   1.082       .  S
C81          C86   1.385       .  A
C81          C82   1.396       .  A
C81          N87   1.337       .  A
C82          C83   1.395       .  A
C82          H93   1.082       .  S
C83          C92   1.369       .  A
C83          C84   1.385       .  A
C84          C85   1.406       .  A
C84          N90   1.345       .  A
C85          C86   1.405       .  A
C85          H94   1.082       .  S
C86          C89   1.380       .  A
N87          C88   1.350       .  A
N87          H97   1.042       .  S
C88          C89   1.396       .  A
C89          H95   1.082       .  S
N90          C91   1.356       .  A
N90          H98   1.045       .  S
C91          C92   1.390       .  A
C92          H96   1.083       .  S
C99         C104   1.386       .  A
C99         C100   1.399       .  A
C99         N105   1.340       .  A
C100        C101   1.399       .  A
C100        H111   1.082       .  S
C101        C110   1.374       .  A
C101        C102   1.385       .  A
C102        C103   1.404       .  A
C102        N108   1.344       .  A
C103        C104   1.403       .  A
C103        H112   1.082       .  S
C104        C107   1.378       .  A
N105        C106   1.351       .  A
N105        H115   1.043       .  S
C106        C107   1.393       .  A
C107        H113   1.082       .  S
N108        C109   1.356       .  A
N108        H116   1.045       .  S
C109        C110   1.392       .  A
C110        H114   1.082       .  S
C117        C122   1.386       .  A
C117        C118   1.396       .  A
C117        N123   1.337       .  A
C118        C119   1.395       .  A
C118        H129   1.083       .  S
C119        C128   1.370       .  A
C119        C120   1.386       .  A
C120        C121   1.399       .  A
C120        N126   1.339       .  A
C121        C122   1.398       .  A
C121        H130   1.082       .  S
C122        C125   1.372       .  A
N123        C124   1.350       .  A
N123        H133   1.044       .  S
C124        C125   1.392       .  A
C125        H131   1.082       .  S
N126        C127   1.353       .  A
N126        H134   1.045       .  S
C127        C128   1.390       .  A
C128        H132   1.083       .  S
C135        C140   1.386       .  A
C135        C136   1.401       .  A
C135        N141   1.343       .  A
C136        C137   1.401       .  A
C136        H147   1.082       .  S
C137        C146   1.375       .  A
C137        C138   1.385       .  A
C138        C139   1.402       .  A
C138        N144   1.344       .  A
C139        C140   1.402       .  A
C139        H148   1.082       .  S
C140        C143   1.375       .  A
N141        C142   1.352       .  A
N141        H151   1.045       .  S
C142        C143   1.391       .  A
C143        H149   1.081       .  S
N144        C145   1.355       .  A
N144        H152   1.045       .  S
C145        C146   1.393       .  A
C146        H150   1.082       .  S
C153        C158   1.386       .  A
C153        C154   1.395       .  A
C153        N159   1.334       .  A
C154        C155   1.393       .  A
C154        H165   1.083       .  S
C155        C164   1.367       .  A
C155        C156   1.386       .  A
C156        C157   1.401       .  A
C156        N162   1.341       .  A
C157        C158   1.400       .  A
C157        H166   1.082       .  S
C158        C161   1.375       .  A
N159        C160   1.350       .  A
N159        H169   1.045       .  S
C160        C161   1.392       .  A
C161        H167   1.082       .  S
N162        C163   1.353       .  A
N162        H170   1.045       .  S
C163        C164   1.389       .  A
C164        H168   1.083       .  S
C171        C176   1.385       .  A
C171        C172   1.403       .  A
C171        N177   1.343       .  A
C172        C173   1.402       .  A
C172        H183   1.082       .  S
C173        C182   1.378       .  A
C173        C174   1.385       .  A
C174        C175   1.404       .  A
C174        N180   1.343       .  A
C175        C176   1.403       .  A
C175        H184   1.082       .  S
C176        C179   1.379       .  A
N177        C178   1.355       .  A
N177        H187   1.044       .  S
C178        C179   1.395       .  A
C179        H185   1.082       .  S
N180        C181   1.354       .  A
N180        H188   1.045       .  S
C181        C182   1.392       .  A
C182        H186   1.082       .  S
C189        C194   1.386       .  A
C189        C190   1.399       .  A
C189        N195   1.339       .  A
C190        C191   1.398       .  A
C190        H201   1.082       .  S
C191        C200   1.373       .  A
C191        C192   1.387       .  A
C192        C193   1.394       .  A
C192        N198   1.335       .  A
C193        C194   1.393       .  A
C193        H202   1.083       .  S
C194        C197   1.365       .  A
N195        C196   1.352       .  A
N195        H205   1.044       .  S
C196        C197   1.387       .  A
C197        H203   1.083       .  S
N198        C199   1.350       .  A
N198        H206   1.045       .  S
C199        C200   1.390       .  A
C200        H204   1.082       .  S
C207        C212   1.386       .  A
C207        C208   1.398       .  A
C207        N213   1.336       .  A
C208        C209   1.396       .  A
C208        H219   1.082       .  S
C209        C218   1.372       .  A
C209        C210   1.385       .  A
C210        C211   1.401       .  A
C210        N216   1.338       .  A
C211        C212   1.399       .  A
C211        H220   1.082       .  S
C212        C215   1.377       .  A
N213        C214   1.352       .  A
N213        H223   1.045       .  S
C214        C215   1.392       .  A
C215        H221   1.082       .  S
N216        C217   1.354       .  A
N216        H224   1.045       .  S
C217        C218   1.389       .  A
C218        H222   1.083       .  S
C225        C230   1.385       .  A
C225        C226   1.404       .  A
C225        N231   1.343       .  A
C226        C227   1.403       .  A
C226        H237   1.082       .  S
C227        C236   1.378       .  A
C227        C228   1.385       .  A
C228        C229   1.400       .  A
C228        N234   1.340       .  A
C229        C230   1.399       .  A
C229        H238   1.082       .  S
C230        C233   1.374       .  A
N231        C232   1.355       .  A
N231        H241   1.045       .  S
C232        C233   1.392       .  A
C233        H239   1.082       .  S
N234        C235   1.351       .  A
N234        H242   1.044       .  S
C235        C236   1.393       .  A
C236        H240   1.082       .  S
C243        C248   1.385       .  A
C243        C244   1.404       .  A
C243        N249   1.343       .  A
C244        C245   1.403       .  A
C244        H255   1.082       .  S
C245        C254   1.380       .  A
C245        C246   1.386       .  A
C246        C247   1.396       .  A
C246        N252   1.336       .  A
C247        C248   1.394       .  A
C247        H256   1.083       .  S
C248        C251   1.367       .  A
N249        C250   1.355       .  A
N249        H259   1.044       .  S
C250        C251   1.391       .  A
C251        H257   1.082       .  S
N252        C253   1.351       .  A
N252        H260   1.045       .  S
C253        C254   1.393       .  A
C254        H258   1.082       .  S
C261        C266   1.385       .  A
C261        C262   1.402       .  A
C261        N267   1.342       .  A
C262        C263   1.402       .  A
C262        H273   1.082       .  S
C263        C272   1.377       .  A
C263        C264   1.385       .  A
C264        C265   1.399       .  A
C264        N270   1.339       .  A
C265        C266   1.398       .  A
C265        H274   1.082       .  S
C266        C269   1.372       .  A
N267        C268   1.354       .  A
N267        H277   1.045       .  S
C268        C269   1.389       .  A
C269        H275   1.081       .  S
N270        C271   1.353       .  A
N270        H278   1.045       .  S
C271        C272   1.394       .  A
C272        H276   1.082       .  S
C279        H280   1.111       .  S
C279        C285   1.536       .  S
C279        C284   1.537       .  S
C279        C283   1.527       .  S
C281        H282   1.112       .  S
C281        C287   1.521       .  S
C281        C286   1.530       .  S
C281        C288   1.522       .  S
C283        C286   1.369       .  D
C283        C459   1.470       .  S
C284        C287   1.368       .  D
C284        C495   1.465       .  S
C285        C288   1.370       .  D
C285        C528   1.469       .  S
C286        C474   1.455       .  S
C287        C513   1.467       .  S
C288        C546   1.467       .  S
C289        H290   1.112       .  S
C289        C295   1.529       .  S
C289        C294   1.530       .  S
C289        C293   1.539       .  S
C291        H292   1.112       .  S
C291        C297   1.526       .  S
C291        C296   1.522       .  S
C291        C298   1.529       .  S
C293        C296   1.371       .  D
C293        C348   1.468       .  S
C294        C297   1.367       .  D
C294        C402   1.461       .  S
C295        C298   1.368       .  D
C295        C420   1.468       .  S
C296        C366   1.471       .  S
C297        C384   1.468       .  S
C298        C438   1.459       .  S
O299        V307   1.898       .  S
O299        C309   1.264       .  A
O300        C310   1.264       .  A
O301        C311   1.262       .  A
O302        V307   1.891   1_455  S
O302        C312   1.261       .  A
O303        V308   1.882       .  S
O303        C312   1.260       .  A
O304        C311   1.262       .  A
O305        C310   1.265       .  A
O306        V308   1.902   1_655  S
O306        C309   1.264       .  A
V307        V308   2.083   1_655  T
C309        C387   1.466       .  S
C310        C456   1.469       .  S
C311        C405   1.452       .  S
C312        C477   1.446       .  S
O313        C323   1.264       .  A
O314        V321   1.898       .  S
O314        C324   1.263       .  A
O315        V321   1.884       .  S
O315        C325   1.261       .  A
O316        C326   1.261       .  A
O317        C326   1.263       .  A
O318        V322   1.897       .  S
O318        C325   1.263       .  A
O319        V322   1.899       .  S
O319        C324   1.265       .  A
O320        C323   1.264       .  A
V321        V322   2.081       .  T
C323        C423   1.465       .  S
C324        C510   1.465       .  S
C325        C441   1.452       .  S
C326        C492   1.453       .  S
O327        C337   1.262       .  A
O328        V335   1.880   1_545  S
O328        C338   1.259       .  A
O329        V335   1.881       .  S
O329        C339   1.260       .  A
O330        C340   1.262       .  A
O331        C340   1.264       .  A
O332        V336   1.905       .  S
O332        C339   1.264       .  A
O333        V336   1.901   1_545  S
O333        C338   1.263       .  A
O334        C337   1.264       .  A
V335        V336   2.091       .  T
C337        C549   1.462       .  S
C338        C351   1.451       .  S
C339        C531   1.455       .  S
C340        C369   1.463       .  S
C341        C346   1.385       .  A
C341        C342   1.402       .  A
C341        N347   1.342       .  A
C342        C343   1.402       .  A
C342        H353   1.082       .  S
C343        C352   1.377       .  A
C343        C344   1.386       .  A
C344        C345   1.396       .  A
C344        N350   1.336       .  A
C345        C346   1.395       .  A
C345        H354   1.083       .  S
C346        C349   1.368       .  A
N347        C348   1.354       .  A
N347        H357   1.045       .  S
C348        C349   1.392       .  A
C349        H355   1.082       .  S
N350        C351   1.351       .  A
N350        H358   1.045       .  S
C351        C352   1.392       .  A
C352        H356   1.082       .  S
C359        C364   1.385       .  A
C359        C360   1.396       .  A
C359        N365   1.337       .  A
C360        C361   1.395       .  A
C360        H371   1.082       .  S
C361        C370   1.369       .  A
C361        C362   1.385       .  A
C362        C363   1.406       .  A
C362        N368   1.345       .  A
C363        C364   1.405       .  A
C363        H372   1.082       .  S
C364        C367   1.380       .  A
N365        C366   1.350       .  A
N365        H375   1.042       .  S
C366        C367   1.396       .  A
C367        H373   1.082       .  S
N368        C369   1.356       .  A
N368        H376   1.045       .  S
C369        C370   1.390       .  A
C370        H374   1.083       .  S
C377        C382   1.386       .  A
C377        C378   1.399       .  A
C377        N383   1.340       .  A
C378        C379   1.399       .  A
C378        H389   1.082       .  S
C379        C388   1.374       .  A
C379        C380   1.385       .  A
C380        C381   1.404       .  A
C380        N386   1.344       .  A
C381        C382   1.403       .  A
C381        H390   1.082       .  S
C382        C385   1.378       .  A
N383        C384   1.351       .  A
N383        H393   1.043       .  S
C384        C385   1.393       .  A
C385        H391   1.082       .  S
N386        C387   1.356       .  A
N386        H394   1.045       .  S
C387        C388   1.392       .  A
C388        H392   1.082       .  S
C395        C400   1.386       .  A
C395        C396   1.396       .  A
C395        N401   1.337       .  A
C396        C397   1.395       .  A
C396        H407   1.083       .  S
C397        C406   1.370       .  A
C397        C398   1.386       .  A
C398        C399   1.399       .  A
C398        N404   1.339       .  A
C399        C400   1.398       .  A
C399        H408   1.082       .  S
C400        C403   1.372       .  A
N401        C402   1.350       .  A
N401        H411   1.044       .  S
C402        C403   1.392       .  A
C403        H409   1.082       .  S
N404        C405   1.353       .  A
N404        H412   1.045       .  S
C405        C406   1.390       .  A
C406        H410   1.083       .  S
C413        C418   1.386       .  A
C413        C414   1.401       .  A
C413        N419   1.343       .  A
C414        C415   1.401       .  A
C414        H425   1.082       .  S
C415        C424   1.375       .  A
C415        C416   1.385       .  A
C416        C417   1.402       .  A
C416        N422   1.344       .  A
C417        C418   1.402       .  A
C417        H426   1.082       .  S
C418        C421   1.375       .  A
N419        C420   1.352       .  A
N419        H429   1.045       .  S
C420        C421   1.391       .  A
C421        H427   1.081       .  S
N422        C423   1.355       .  A
N422        H430   1.045       .  S
C423        C424   1.393       .  A
C424        H428   1.082       .  S
C431        C436   1.386       .  A
C431        C432   1.395       .  A
C431        N437   1.334       .  A
C432        C433   1.393       .  A
C432        H443   1.083       .  S
C433        C442   1.367       .  A
C433        C434   1.386       .  A
C434        C435   1.401       .  A
C434        N440   1.341       .  A
C435        C436   1.400       .  A
C435        H444   1.082       .  S
C436        C439   1.375       .  A
N437        C438   1.350       .  A
N437        H447   1.045       .  S
C438        C439   1.392       .  A
C439        H445   1.082       .  S
N440        C441   1.353       .  A
N440        H448   1.045       .  S
C441        C442   1.389       .  A
C442        H446   1.083       .  S
C449        C454   1.385       .  A
C449        C450   1.403       .  A
C449        N455   1.343       .  A
C450        C451   1.402       .  A
C450        H461   1.082       .  S
C451        C460   1.378       .  A
C451        C452   1.385       .  A
C452        C453   1.404       .  A
C452        N458   1.343       .  A
C453        C454   1.403       .  A
C453        H462   1.082       .  S
C454        C457   1.379       .  A
N455        C456   1.355       .  A
N455        H465   1.045       .  S
C456        C457   1.395       .  A
C457        H463   1.082       .  S
N458        C459   1.354       .  A
N458        H466   1.045       .  S
C459        C460   1.392       .  A
C460        H464   1.082       .  S
C467        C472   1.386       .  A
C467        C468   1.399       .  A
C467        N473   1.339       .  A
C468        C469   1.398       .  A
C468        H479   1.082       .  S
C469        C478   1.373       .  A
C469        C470   1.387       .  A
C470        C471   1.394       .  A
C470        N476   1.335       .  A
C471        C472   1.393       .  A
C471        H480   1.083       .  S
C472        C475   1.365       .  A
N473        C474   1.352       .  A
N473        H483   1.044       .  S
C474        C475   1.387       .  A
C475        H481   1.083       .  S
N476        C477   1.350       .  A
N476        H484   1.045       .  S
C477        C478   1.390       .  A
C478        H482   1.082       .  S
C485        C490   1.386       .  A
C485        C486   1.398       .  A
C485        N491   1.336       .  A
C486        C487   1.396       .  A
C486        H497   1.082       .  S
C487        C496   1.372       .  A
C487        C488   1.385       .  A
C488        C489   1.401       .  A
C488        N494   1.338       .  A
C489        C490   1.399       .  A
C489        H498   1.082       .  S
C490        C493   1.377       .  A
N491        C492   1.352       .  A
N491        H501   1.045       .  S
C492        C493   1.392       .  A
C493        H499   1.082       .  S
N494        C495   1.354       .  A
N494        H502   1.044       .  S
C495        C496   1.389       .  A
C496        H500   1.083       .  S
C503        C508   1.385       .  A
C503        C504   1.404       .  A
C503        N509   1.343       .  A
C504        C505   1.403       .  A
C504        H515   1.082       .  S
C505        C514   1.378       .  A
C505        C506   1.385       .  A
C506        C507   1.400       .  A
C506        N512   1.340       .  A
C507        C508   1.399       .  A
C507        H516   1.082       .  S
C508        C511   1.374       .  A
N509        C510   1.355       .  A
N509        H519   1.045       .  S
C510        C511   1.392       .  A
C511        H517   1.082       .  S
N512        C513   1.351       .  A
N512        H520   1.044       .  S
C513        C514   1.393       .  A
C514        H518   1.082       .  S
C521        C526   1.385       .  A
C521        C522   1.404       .  A
C521        N527   1.343       .  A
C522        C523   1.403       .  A
C522        H533   1.082       .  S
C523        C532   1.380       .  A
C523        C524   1.386       .  A
C524        C525   1.396       .  A
C524        N530   1.336       .  A
C525        C526   1.394       .  A
C525        H534   1.083       .  S
C526        C529   1.367       .  A
N527        C528   1.355       .  A
N527        H537   1.044       .  S
C528        C529   1.391       .  A
C529        H535   1.082       .  S
N530        C531   1.351       .  A
N530        H538   1.045       .  S
C531        C532   1.393       .  A
C532        H536   1.082       .  S
C539        C544   1.385       .  A
C539        C540   1.402       .  A
C539        N545   1.342       .  A
C540        C541   1.402       .  A
C540        H551   1.082       .  S
C541        C550   1.377       .  A
C541        C542   1.385       .  A
C542        C543   1.399       .  A
C542        N548   1.339       .  A
C543        C544   1.398       .  A
C543        H552   1.082       .  S
C544        C547   1.372       .  A
N545        C546   1.354       .  A
N545        H555   1.045       .  S
C546        C547   1.389       .  A
C547        H553   1.081       .  S
N548        C549   1.353       .  A
N548        H556   1.045       .  S
C549        C550   1.394       .  A
C550        H554   1.082       .  S
