geometry optimzed in LAMMPS
_audit_creation_date              2020-11-30 
_audit_creation_method            'lammps2cif' 
_symmetry_space_group_name_H-M    'P1' 
_symmetry_Int_Tables_number       1 
_symmetry_cell_setting            triclinic 
loop_ 
_symmetry_equiv_pos_as_xyz 
  x,y,z 
_cell_length_a                    62.97512764 
_cell_length_b                    67.80489234948998 
_cell_length_c                    35.23026900632109 
_cell_angle_alpha                 90.52589845070459 
_cell_angle_beta                  88.76113637865537 
_cell_angle_gamma                 90.324222021758 
loop_ 
_atom_site_label 
_atom_site_type_symbol 
_atom_site_fract_x 
_atom_site_fract_y 
_atom_site_fract_z 
_atom_site_charge 
O1          O  0.63731192  0.93395190  0.13183625    -0.79500
O2          O  0.63203630  0.84308063  0.08908998    -0.64200
O3          O  0.61814821  0.89743339  0.11100423    -1.10800
C4          C  0.62326130  0.87553537  0.23877656     1.07400
O5          O  0.60652108  0.83466074  0.12920433    -0.77400
O6          O  0.58595154  0.85858699  0.17893514    -0.65000
Ni7        Ni  0.63217917  0.91880301  0.08601093     1.34900
C8          C  0.57915181  0.87604768  0.17576406     0.86100
O9          O  0.62259853  0.87403186  0.04459309    -0.78000
O10         O  0.62812916  0.90651755  0.03739613    -0.88200
C11         C  0.62014672  0.82978738  0.10378106     0.85700
O12         O  0.66005711  0.90839312  0.08811874    -0.66400
O13         O  0.61988655  0.85833599  0.22511247    -0.85700
C14         C  0.66754720  0.89105995  0.08890112     0.86500
C15         C  0.62461362  0.88932213  0.02391518     1.08100
H16         H  0.64338591  0.86675774  0.15743913     0.39900
O17         O  0.62854596  0.86844119  0.15188409    -1.08400
O18         O  0.59114335  0.89079645  0.16951551    -0.65000
Ni19       Ni  0.62125632  0.89497297  0.16475193     1.26300
O20         O  0.65589869  0.87571787  0.09262236    -0.65300
O21         O  0.62433372  0.89108906  0.21847958    -0.77600
C22         C  0.62542838  0.93649609  0.16113299     0.85900
O23         O  0.61493282  0.92217142  0.17520106    -0.64700
Ni24       Ni  0.61366561  0.84737695  0.17633059     1.27400
Ni25       Ni  0.62572466  0.87070918  0.09821830     1.26100
H26         H  0.60328043  0.89883829  0.10556424     0.40400
O27         O  0.63544461  0.93135987  0.63002042    -0.79500
O28         O  0.62845080  0.83985654  0.58914319    -0.64200
O29         O  0.61601478  0.89427233  0.61171492    -1.10800
C30         C  0.61845965  0.87590497  0.73927602     1.07400
O31         O  0.60965503  0.82726176  0.63744107    -0.77400
O32         O  0.58399146  0.85575672  0.66526052    -0.65000
Ni33       Ni  0.63185275  0.91460952  0.58599017     1.34900
C34         C  0.57741512  0.87329412  0.66940015     0.86100
O35         O  0.61829912  0.87029099  0.54592046    -0.78000
O36         O  0.62986122  0.90125636  0.53811162    -0.88200
C37         C  0.61963713  0.82535146  0.60590848     0.85700
O38         O  0.65902907  0.90357288  0.59426739    -0.66400
O39         O  0.60983270  0.86016017  0.72691157    -0.85700
C40         C  0.66551467  0.88588685  0.59275217     0.86500
C41         C  0.62385763  0.88468395  0.52489726     1.08100
H42         H  0.64165325  0.86276774  0.65785021     0.39900
O43         O  0.62681797  0.86505411  0.65293474    -1.08400
O44         O  0.59004921  0.88792329  0.67358047    -0.65000
Ni45       Ni  0.62042080  0.89207300  0.66495670     1.26300
O46         O  0.65290194  0.87114881  0.59185045    -0.65300
O47         O  0.62589728  0.88914002  0.71749981    -0.77600
C48         C  0.62462195  0.93371820  0.66052768     0.85900
O49         O  0.61455107  0.91937703  0.67538862    -0.64700
Ni50       Ni  0.61049291  0.84541365  0.67971754     1.27400
Ni51       Ni  0.62263210  0.86722917  0.59930644     1.26100
H52         H  0.60113793  0.89640537  0.60708842     0.40400
O53         O  0.85956976  0.93067941  0.04828348    -0.79500
O54         O  0.86080083  0.84087410  0.08120422    -0.64200
O55         O  0.87792608  0.89467915  0.06739572    -1.10800
C56         C  0.87614119  0.87624951  0.93666833     1.07400
O57         O  0.88672324  0.83137987  0.04237123    -0.77400
O58         O  0.91094512  0.85621891  0.00225795    -0.65000
Ni59       Ni  0.86363536  0.91561466  0.09358269     1.34900
C60         C  0.91867205  0.87326415  0.00796050     0.86100
O61         O  0.86949874  0.87011376  0.13026672    -0.78000
O62         O  0.86689132  0.90269590  0.14135106    -0.88200
C63         C  0.87286767  0.82741730  0.06798033     0.85700
O64         O  0.83536173  0.90578373  0.08948476    -0.66400
O65         O  0.87971503  0.85892085  0.94876182    -0.85700
C66         C  0.82741937  0.88890382  0.08272999     0.86500
C67         C  0.86880703  0.88499789  0.15273035     1.08100
H68         H  0.85351839  0.86603565  0.01374504     0.39900
O69         O  0.86807730  0.86712051  0.02160805    -1.08400
O70         O  0.90724812  0.88865771  0.01102949    -0.65000
Ni71       Ni  0.87698301  0.89376046  0.01299190     1.26300
O72         O  0.83861267  0.87360088  0.07670057    -0.65300
O73         O  0.87519888  0.89147336  0.95841398    -0.77600
C74         C  0.87371106  0.93485681  0.02332658     0.85900
O75         O  0.88459558  0.92116132  0.00762423    -0.64700
Ni76       Ni  0.88288547  0.84621041  0.99667513     1.27400
Ni77       Ni  0.86863689  0.86811948  0.07577433     1.26100
H78         H  0.89258198  0.89548222  0.07487824     0.40400
O79         O  0.85865325  0.93077960  0.54976128    -0.79500
O80         O  0.86110190  0.83820955  0.58497248    -0.64200
O81         O  0.87430407  0.89307669  0.56789125    -1.10800
C82         C  0.87568589  0.87126678  0.43810731     1.07400
O83         O  0.88795599  0.82987086  0.54767157    -0.77400
O84         O  0.91030065  0.85491052  0.50428265    -0.65000
Ni85       Ni  0.85592353  0.91235397  0.59111503     1.34900
C86         C  0.91709191  0.87234293  0.50955835     0.86100
O87         O  0.86921618  0.86909581  0.63145494    -0.78000
O88         O  0.85198108  0.89760839  0.63760956    -0.88200
C89         C  0.87330297  0.82503648  0.57105982     0.85700
O90         O  0.83091332  0.90125853  0.56972717    -0.66400
O91         O  0.87905990  0.85416037  0.45138241    -0.85700
C92         C  0.82437850  0.88358912  0.57320213     0.86500
C93         C  0.86069346  0.88254889  0.65188928     1.08100
H94         H  0.85215400  0.86171676  0.51633686     0.39900
O95         O  0.86666756  0.86373688  0.52389713    -1.08400
O96         O  0.90467632  0.88705008  0.51343321    -0.65000
Ni97       Ni  0.87407604  0.89057087  0.51331022     1.26300
O98         O  0.83679480  0.86938765  0.58046933    -0.65300
O99         O  0.87352885  0.88671294  0.45897591    -0.77600
C100        C  0.87048243  0.93272725  0.52024044     0.85900
O101        O  0.87993411  0.91813280  0.50444614    -0.64700
Ni102      Ni  0.88295744  0.84305976  0.50054802     1.27400
Ni103      Ni  0.86738725  0.86587828  0.57782520     1.26100
H104        H  0.88856902  0.89569266  0.57627913     0.40400
O105        O  0.85542867  0.07784105  0.39559887    -0.79500
O106        O  0.86268906  0.17076902  0.36677650    -0.64200
O107        O  0.87556226  0.11508081  0.37841473    -1.10800
C108        C  0.87631012  0.13149851  0.50877033     1.07400
O109        O  0.88832404  0.17806244  0.40544075    -0.77400
O110        O  0.91114088  0.15031032  0.43676146    -0.65000
Ni111      Ni  0.85951991  0.09523393  0.35251861     1.34900
C112        C  0.91666090  0.13241444  0.43445760     0.86100
O113        O  0.87167193  0.14095533  0.31618258    -0.78000
O114        O  0.86273491  0.10937058  0.30577607    -0.88200
C115        C  0.87356676  0.18372869  0.38438814     0.85700
O116        O  0.83226628  0.10642163  0.36300539    -0.66400
O117        O  0.88273626  0.14826413  0.49697381    -0.85700
C118        C  0.82596394  0.12412268  0.36648412     0.86500
C119        C  0.86831296  0.12636121  0.29385769     1.08100
H120        H  0.85259992  0.14554989  0.43322110     0.39900
O121        O  0.86704868  0.14311637  0.42507204    -1.08400
O122        O  0.90349686  0.11818160  0.43549860    -0.65000
Ni123      Ni  0.87306419  0.11566974  0.43266735     1.26300
O124        O  0.83856106  0.13884238  0.36820256    -0.65300
O125        O  0.87034151  0.11758767  0.48680578    -0.77600
C126        C  0.86765340  0.07412601  0.42289581     0.85900
O127        O  0.87838685  0.08787240  0.43814944    -0.64700
Ni128      Ni  0.88470539  0.16215189  0.44980829     1.27400
Ni129      Ni  0.86891571  0.14262829  0.37070013     1.26100
H130        H  0.89025188  0.11317018  0.37088440     0.40400
O131        O  0.85988790  0.07870445  0.90417291    -0.79500
O132        O  0.86291005  0.16749887  0.86077208    -0.64200
O133        O  0.87913929  0.11395906  0.87947572    -1.10800
C134        C  0.87772719  0.13609305  0.00824909     1.07400
O135        O  0.88917834  0.17699479  0.89690726    -0.77400
O136        O  0.91200147  0.15404701  0.94219613    -0.65000
Ni137      Ni  0.86532097  0.09205673  0.85668483     1.34900
C138        C  0.91973307  0.13693382  0.93747703     0.86100
O139        O  0.87202172  0.13631226  0.81428626    -0.78000
O140        O  0.87005265  0.10330873  0.80752410    -0.88200
C141        C  0.87492069  0.18113515  0.87332747     0.85700
O142        O  0.83704308  0.10199265  0.85779667    -0.66400
O143        O  0.87938992  0.15345387  0.99470197    -0.85700
C144        C  0.82906065  0.11908449  0.86143499     0.86500
C145        C  0.87184180  0.12061637  0.79380198     1.08100
H146        H  0.85450142  0.14382502  0.93095666     0.39900
O147        O  0.86918984  0.14268787  0.92271916    -1.08400
O148        O  0.90821733  0.12165425  0.93305270    -0.65000
Ni149      Ni  0.87804785  0.11647433  0.93360417     1.26300
O150        O  0.84015005  0.13449985  0.86786414    -0.65300
O151        O  0.87705815  0.12038017  0.98788926    -0.77600
C152        C  0.87350767  0.07539630  0.92950724     0.85900
O153        O  0.88524954  0.08934603  0.94146962    -0.64700
Ni154      Ni  0.88385426  0.16432963  0.94495741     1.27400
Ni155      Ni  0.87030837  0.14017757  0.86850610     1.26100
H156        H  0.89384061  0.11301023  0.87129329     0.40400
O157        O  0.63751966  0.07779491  0.29995602    -0.79500
O158        O  0.63095349  0.16823119  0.34444833    -0.64200
O159        O  0.61847948  0.11347194  0.32531409    -1.10800
C160        C  0.61772995  0.13416553  0.19603826     1.07400
O161        O  0.60577774  0.17711590  0.30589211    -0.77400
O162        O  0.58386500  0.15215681  0.26235205    -0.65000
Ni163      Ni  0.63578740  0.09344023  0.34605665     1.34900
C164        C  0.57665155  0.13498668  0.26875800     0.86100
O165        O  0.62243095  0.13702005  0.39028837    -0.78000
O166        O  0.63475067  0.10615421  0.39512468    -0.88200
C167        C  0.61941062  0.18156195  0.33058001     0.85700
O168        O  0.66261801  0.10526566  0.33347165    -0.66400
O169        O  0.61596312  0.15164866  0.20937325    -0.85700
C170        C  0.66852763  0.12313510  0.33626910     0.86500
C171        C  0.62766326  0.12212867  0.40994252     1.08100
H172        H  0.64163012  0.14408726  0.27429243     0.39900
O173        O  0.62689124  0.14253425  0.28204046    -1.08400
O174        O  0.58854360  0.12017336  0.27371290    -0.65000
Ni175      Ni  0.61878919  0.11578566  0.27130259     1.26300
O176        O  0.65554269  0.13740128  0.33917937    -0.65300
O177        O  0.61909856  0.11896934  0.21699770    -0.77600
C178        C  0.62335370  0.07452370  0.27540125     0.85900
O179        O  0.61190305  0.08844827  0.26346665    -0.64700
Ni180      Ni  0.61158925  0.16333178  0.25873468     1.27400
Ni181      Ni  0.62511550  0.14053218  0.33633304     1.26100
H182        H  0.60413719  0.11096410  0.33434254     0.40400
O183        O  0.63852700  0.07544468  0.80421889    -0.79500
O184        O  0.63634556  0.16615258  0.84007972    -0.64200
O185        O  0.61919789  0.11193035  0.82532278    -1.10800
C186        C  0.61726499  0.12775783  0.69595193     1.07400
O187        O  0.61411215  0.17747600  0.79730756    -0.77400
O188        O  0.58676783  0.15009812  0.77335894    -0.65000
Ni189      Ni  0.63285894  0.09072636  0.85007410     1.34900
C190        C  0.57907329  0.13279838  0.77444701     0.86100
O191        O  0.62644450  0.13634092  0.88876736    -0.78000
O192        O  0.62773253  0.10348887  0.89811858    -0.88200
C193        C  0.62746591  0.18040529  0.82321574     0.85700
O194        O  0.66121375  0.10087337  0.84761075    -0.66400
O195        O  0.61132750  0.14450467  0.70863876    -0.85700
C196        C  0.66940203  0.11775104  0.84148666     0.86500
C197        C  0.62586480  0.12119241  0.91026660     1.08100
H198        H  0.64418153  0.14092663  0.77096474     0.39900
O199        O  0.62957740  0.13949367  0.77953383    -1.08400
O200        O  0.59056663  0.11744400  0.77022367    -0.65000
Ni201      Ni  0.62102807  0.11254362  0.77132278     1.26300
O202        O  0.65832663  0.13293651  0.83469642    -0.65300
O203        O  0.62355410  0.11403604  0.71723788    -0.77600
C204        C  0.62547315  0.07154599  0.77805939     0.85900
O205        O  0.61380154  0.08512606  0.76549566    -0.64700
Ni206      Ni  0.61347375  0.15941220  0.75511756     1.27400
Ni207      Ni  0.62827867  0.13861896  0.83413657     1.26100
H208        H  0.60441713  0.11114669  0.83315251     0.40400
O209        O  0.10652326  0.82712366  0.05515270    -0.79500
O210        O  0.11453301  0.91560796  0.01589870    -0.64200
O211        O  0.12855956  0.86116035  0.03264971    -1.10800
C212        C  0.12599260  0.88154107  0.16221701     1.07400
O213        O  0.13993409  0.92488573  0.05412967    -0.77400
O214        O  0.16217960  0.89959190  0.09699874    -0.65000
Ni215      Ni  0.11337448  0.84037755  0.00831084     1.34900
C216        C  0.16923493  0.88210330  0.09445339     0.86100
O217        O  0.12232574  0.88468402  0.96824559    -0.78000
O218        O  0.11943593  0.85179516  0.95973484    -0.88200
C219        C  0.12606100  0.92925071  0.02991171     0.85700
O220        O  0.08559830  0.85168281  0.00940549    -0.66400
O221        O  0.12967071  0.89877017  0.14922354    -0.85700
C222        C  0.07851493  0.86889232  0.01609429     0.86500
C223        C  0.12195104  0.86924195  0.94704606     1.08100
H224        H  0.10485893  0.89129831  0.08501476     0.39900
O225        O  0.11951767  0.88969448  0.07700464    -1.08400
O226        O  0.15727212  0.86703848  0.08978819    -0.65000
Ni227      Ni  0.12680763  0.86276609  0.08700467     1.26300
O228        O  0.09049685  0.88360502  0.02295010    -0.65300
O229        O  0.12447789  0.86602688  0.14136076    -0.77600
C230        C  0.12025926  0.82168567  0.07872609     0.85900
O231        O  0.13249100  0.83467742  0.09335733    -0.64700
Ni232      Ni  0.13446814  0.91069569  0.10067450     1.27400
Ni233      Ni  0.12085127  0.88792727  0.02275355     1.26100
H234        H  0.14330237  0.85965451  0.02502025     0.40400
O235        O  0.10536017  0.82760999  0.55466367    -0.79500
O236        O  0.11543496  0.91687139  0.51855908    -0.64200
O237        O  0.12699767  0.86160638  0.53089469    -1.10800
C238        C  0.13125436  0.87932517  0.66129983     1.07400
O239        O  0.14172066  0.92550668  0.55557918    -0.77400
O240        O  0.16496885  0.89793702  0.59020500    -0.65000
Ni241      Ni  0.10915287  0.84210452  0.50836611     1.34900
C242        C  0.17102570  0.88021334  0.58611742     0.86100
O243        O  0.12038975  0.88660935  0.46909985    -0.78000
O244        O  0.11162821  0.85473993  0.45991694    -0.88200
C245        C  0.12796037  0.93004885  0.53127030     0.85700
O246        O  0.08247738  0.85425393  0.51901269    -0.66400
O247        O  0.13567734  0.89651214  0.64879893    -0.85700
C248        C  0.07669948  0.87194080  0.52459691     0.86500
C249        C  0.11618311  0.87191313  0.44751590     1.08100
H250        H  0.10666071  0.89188586  0.58756702     0.39900
O251        O  0.12094653  0.88983483  0.57781902    -1.08400
O252        O  0.15821839  0.86562646  0.58398100    -0.65000
Ni253      Ni  0.12757554  0.86240175  0.58524113     1.26300
O254        O  0.08978608  0.88629925  0.52595768    -0.65300
O255        O  0.12738353  0.86454352  0.63970536    -0.77600
C256        C  0.12030158  0.82155226  0.57501113     0.85900
O257        O  0.13296671  0.83420464  0.58930565    -0.64700
Ni258      Ni  0.13808856  0.90970365  0.60083176     1.27400
Ni259      Ni  0.12047934  0.88892528  0.52351356     1.26100
H260        H  0.14124624  0.85936267  0.52103041     0.40400
O261        O  0.39093969  0.83073065  0.16241723    -0.79500
O262        O  0.38404573  0.91894317  0.20672572    -0.64200
O263        O  0.37027215  0.86471612  0.18918907    -1.10800
C264        C  0.36683370  0.88569982  0.06088954     1.07400
O265        O  0.35696279  0.92844663  0.17285130    -0.77400
O266        O  0.33311272  0.90255229  0.13319442    -0.65000
Ni267      Ni  0.38701545  0.84434938  0.21037521     1.34900
C268        C  0.32670306  0.88483967  0.13638011     0.86100
O269        O  0.37825357  0.88835390  0.25321199    -0.78000
O270        O  0.38430465  0.85604112  0.26039864    -0.88200
C271        C  0.37120150  0.93222773  0.19701964     0.85700
O272        O  0.41424194  0.85602245  0.20228694    -0.66400
O273        O  0.36303679  0.90273583  0.07517450    -0.85700
C274        C  0.42066602  0.87349571  0.19641546     0.86500
C275        C  0.38098010  0.87331138  0.27402747     1.08100
H276        H  0.39133812  0.89585617  0.13543444     0.39900
O277        O  0.37706611  0.89378014  0.14526818    -1.08400
O278        O  0.33929163  0.87023605  0.13736792    -0.65000
Ni279      Ni  0.36975031  0.86684778  0.13498875     1.26300
O280        O  0.40817033  0.88811333  0.19522232    -0.65300
O281        O  0.36972333  0.87029129  0.08079314    -0.77600
C282        C  0.37631984  0.82609379  0.13966656     0.85900
O283        O  0.36377831  0.83918183  0.12773884    -0.64700
Ni284      Ni  0.36040566  0.91437405  0.12505297     1.27400
Ni285      Ni  0.37782808  0.89156032  0.19919218     1.26100
H286        H  0.35593488  0.86274297  0.19878274     0.40400
O287        O  0.39187964  0.83627777  0.66467300    -0.79500
O288        O  0.38210897  0.92242508  0.70715473    -0.64200
O289        O  0.36824008  0.86855851  0.68793968    -1.10800
C290        C  0.36900937  0.88853727  0.55965649     1.07400
O291        O  0.35643784  0.93235231  0.67007066    -0.77400
O292        O  0.33303908  0.90533385  0.63084046    -0.65000
Ni293      Ni  0.38298219  0.84801432  0.71202462     1.34900
C294        C  0.32722113  0.88734793  0.63012714     0.86100
O295        O  0.37478872  0.89163050  0.75358113    -0.78000
O296        O  0.37531022  0.85865872  0.76079739    -0.88200
C297        C  0.36987891  0.93591448  0.69591837     0.85700
O298        O  0.41036604  0.85976514  0.71458533    -0.66400
O299        O  0.36345907  0.90535247  0.57321053    -0.85700
C300        C  0.41801751  0.87641947  0.70555784     0.86500
C301        C  0.37413551  0.87616941  0.77424273     1.08100
H302        H  0.39129051  0.89993430  0.63656016     0.39900
O303        O  0.37681050  0.89746169  0.64489820    -1.08400
O304        O  0.34025738  0.87308460  0.63053003    -0.65000
Ni305      Ni  0.37062146  0.87036386  0.63382728     1.26300
O306        O  0.40630163  0.89094705  0.69736103    -0.65300
O307        O  0.37312434  0.87361238  0.58000944    -0.77600
C308        C  0.37899853  0.83031603  0.63990864     0.85900
O309        O  0.36603769  0.84242576  0.62588030    -0.64700
Ni310      Ni  0.36023873  0.91755841  0.62290002     1.27400
Ni311      Ni  0.37589548  0.89511955  0.69903103     1.26100
H312        H  0.35343403  0.86696810  0.69507359     0.40400
O313        O  0.38580558  0.17429929  0.33511809    -0.79500
O314        O  0.38268613  0.08537095  0.28944011    -0.64200
O315        O  0.36686429  0.13894363  0.31109053    -1.10800
C316        C  0.36991767  0.11714270  0.43923257     1.07400
O317        O  0.35728435  0.07528679  0.32848595    -0.77400
O318        O  0.33412835  0.09901831  0.37430370    -0.65000
Ni319      Ni  0.38149960  0.16051918  0.28787027     1.34900
C320        C  0.32673182  0.11629943  0.37152641     0.86100
O321        O  0.37333125  0.11612292  0.24465881    -0.78000
O322        O  0.37839147  0.14884915  0.23853446    -0.88200
C323        C  0.37134581  0.07147187  0.30313724     0.85700
O324        O  0.40946399  0.15050844  0.29100086    -0.66400
O325        O  0.36656627  0.10003868  0.42512730    -0.85700
C326        C  0.41708846  0.13331121  0.29311235     0.86500
C327        C  0.37546006  0.13164670  0.22458007     1.08100
H328        H  0.39181701  0.10886734  0.35931274     0.39900
O329        O  0.37708576  0.11016725  0.35259574    -1.08400
O330        O  0.33859390  0.13138529  0.36797080    -0.65000
Ni331      Ni  0.36861935  0.13651121  0.36511938     1.26300
O332        O  0.40556901  0.11787109  0.29566630    -0.65300
O333        O  0.37094608  0.13277179  0.41912457    -0.77600
C334        C  0.37150511  0.17770104  0.36018842     0.85900
O335        O  0.36081091  0.16356357  0.37443022    -0.64700
Ni336      Ni  0.36225450  0.08871670  0.37582814     1.27400
Ni337      Ni  0.37539032  0.11256002  0.29863519     1.26100
H338        H  0.35215055  0.14017280  0.30439409     0.40400
O339        O  0.38392893  0.18110577  0.81949488    -0.79500
O340        O  0.38362593  0.08793339  0.79271817    -0.64200
O341        O  0.36995336  0.14238411  0.80785706    -1.10800
C342        C  0.37302407  0.12487625  0.93887046     1.07400
O343        O  0.35994277  0.07818761  0.83550674    -0.77400
O344        O  0.33760512  0.10462722  0.87762055    -0.65000
Ni345      Ni  0.38726160  0.16108352  0.78076320     1.34900
C346        C  0.33032600  0.12181198  0.87270430     0.86100
O347        O  0.37290153  0.11681705  0.74608308    -0.78000
O348        O  0.39150425  0.14436461  0.73628157    -0.88200
C349        C  0.37258801  0.07433332  0.80791579     0.85700
O350        O  0.41277946  0.15191867  0.80272654    -0.66400
O351        O  0.36999696  0.10733330  0.92698415    -0.85700
C352        C  0.41975915  0.13442770  0.79925080     0.86500
C353        C  0.38199278  0.12903650  0.72400606     1.08100
H354        H  0.39499118  0.11348038  0.85877995     0.39900
O355        O  0.38012707  0.11471556  0.85299934    -1.08400
O356        O  0.34201593  0.13682803  0.86617268    -0.65000
Ni357      Ni  0.37224319  0.14163766  0.86234955     1.26300
O358        O  0.40754502  0.11973060  0.79277854    -0.65300
O359        O  0.37445283  0.13978475  0.91693355    -0.77600
C360        C  0.37291946  0.18344185  0.84991692     0.85900
O361        O  0.36549805  0.16907859  0.86918977    -0.64700
Ni362      Ni  0.36552519  0.09411352  0.87984018     1.27400
Ni363      Ni  0.37707256  0.11530586  0.79932635     1.26100
H364        H  0.35528693  0.14439382  0.80091637     0.40400
O365        O  0.10513750  0.17655983  0.41896086    -0.79500
O366        O  0.11214934  0.08751446  0.46576960    -0.64200
O367        O  0.12452582  0.14239655  0.44629789    -1.10800
C368        C  0.12513385  0.11963318  0.31734830     1.07400
O369        O  0.13876486  0.07976508  0.42715841    -0.77400
O370        O  0.15982742  0.10333850  0.37732063    -0.65000
Ni371      Ni  0.10740966  0.16312433  0.46687665     1.34900
C372        C  0.16722971  0.12041386  0.38428219     0.86100
O373        O  0.11716174  0.11978546  0.51172916    -0.78000
O374        O  0.10860898  0.15193985  0.51676805    -0.88200
C375        C  0.12471344  0.07454279  0.45152538     0.85700
O376        O  0.08062932  0.15108060  0.45816492    -0.66400
O377        O  0.12615938  0.10225969  0.33083353    -0.85700
C378        C  0.07421717  0.13333562  0.45643156     0.86500
C379        C  0.11293854  0.13531366  0.53142534     1.08100
H380        H  0.10268335  0.11153787  0.39539135     0.39900
O381        O  0.11720967  0.11301134  0.40330965    -1.08400
O382        O  0.15560796  0.13501610  0.39361663    -0.65000
Ni383      Ni  0.12543170  0.13952186  0.39218177     1.26300
O384        O  0.08672016  0.11864681  0.45732190    -0.65300
O385        O  0.12565496  0.13535290  0.33782248    -0.77600
C386        C  0.12063562  0.18064842  0.39665307     0.85900
O387        O  0.13272079  0.16693443  0.38432352    -0.64700
Ni388      Ni  0.13212147  0.09181054  0.37969452     1.27400
Ni389      Ni  0.11726483  0.11550681  0.45756594     1.26100
H390        H  0.13875272  0.14474031  0.45509155     0.40400
O391        O  0.11000778  0.17710183  0.92693396    -0.79500
O392        O  0.11377891  0.08710764  0.96072921    -0.64200
O393        O  0.12970970  0.14157644  0.94692729    -1.10800
C394        C  0.12811385  0.12452709  0.81568590     1.07400
O395        O  0.13804741  0.07725992  0.91852632    -0.77400
O396        O  0.16245774  0.10328465  0.87938380    -0.65000
Ni397      Ni  0.11471141  0.16236215  0.97251334     1.34900
C398        C  0.17032899  0.12038898  0.88407511     0.86100
O399        O  0.12183344  0.11707530  0.00987785    -0.78000
O400        O  0.11834850  0.14973696  0.02030245    -0.88200
C401        C  0.12469913  0.07333417  0.94512628     0.85700
O402        O  0.08671266  0.15190761  0.96861830    -0.66400
O403        O  0.13137571  0.10690681  0.82659273    -0.85700
C404        C  0.07917485  0.13487402  0.96193032     0.86500
C405        C  0.12061725  0.13214462  0.03200409     1.08100
H406        H  0.10536264  0.11305850  0.89338525     0.39900
O407        O  0.12001623  0.11404634  0.90082454    -1.08400
O408        O  0.15888958  0.13567249  0.88938964    -0.65000
Ni409      Ni  0.12867088  0.14091233  0.89273582     1.26300
O410        O  0.09076015  0.11974590  0.95650774    -0.65300
O411        O  0.12660317  0.13924573  0.83843335    -0.77600
C412        C  0.12429298  0.18173553  0.90264052     0.85900
O413        O  0.13620645  0.16850380  0.88796149    -0.64700
Ni414      Ni  0.13433395  0.09334799  0.87403041     1.27400
Ni415      Ni  0.12094890  0.11478861  0.95523871     1.26100
H416        H  0.14435136  0.14271596  0.95431337     0.40400
O417        O  0.91876157  0.36099363  0.40750411    -0.79500
O418        O  0.82438245  0.36900357  0.37833521    -0.64200
O419        O  0.88285278  0.38155682  0.38757392    -1.10800
C420        C  0.86460461  0.38448725  0.51920022     1.07400
O421        O  0.81648917  0.39491644  0.41427143    -0.77400
O422        O  0.84482066  0.41654311  0.45341521    -0.65000
Ni423      Ni  0.90408128  0.36660655  0.36157811     1.34900
C424        C  0.86381449  0.42251917  0.44862898     0.86100
O425        O  0.85579090  0.37413586  0.32672227    -0.78000
O426        O  0.89083449  0.37122110  0.31384710    -0.88200
C427        C  0.81122386  0.38195922  0.38977363     0.85700
O428        O  0.89154227  0.34096875  0.36419512    -0.66400
O429        O  0.84585564  0.38819384  0.50807518    -0.85700
C430        C  0.87338957  0.33417846  0.37355019     0.86500
C431        C  0.87164901  0.37324620  0.30349547     1.08100
H432        H  0.85110453  0.36201873  0.44512849     0.39900
O433        O  0.85319520  0.37524668  0.43571322    -1.08400
O434        O  0.87928848  0.41060963  0.44321664    -0.65000
Ni435      Ni  0.88231423  0.38188581  0.44197511     1.26300
O436        O  0.85785326  0.34553264  0.38239639    -0.65300
O437        O  0.88038236  0.38156717  0.49644763    -0.77600
C438        C  0.92507753  0.37374732  0.43143387     0.85900
O439        O  0.91220343  0.38642607  0.44513958    -0.64700
Ni440      Ni  0.83213648  0.39110704  0.46011599     1.27400
Ni441      Ni  0.85397031  0.37424603  0.38143690     1.26100
H442        H  0.88444465  0.39496810  0.37885168     0.40400
O443        O  0.88617610  0.33310213  0.91148855    -0.79500
O444        O  0.87803585  0.42134544  0.95304751    -0.64200
O445        O  0.86476889  0.36716759  0.93281592    -1.10800
C446        C  0.87153333  0.38761993  0.80398408     1.07400
O447        O  0.85391223  0.43020266  0.91250037    -0.77400
O448        O  0.83337572  0.40518939  0.86693274    -0.65000
Ni449      Ni  0.87877687  0.34650878  0.95816844     1.34900
C450        C  0.82627922  0.38773060  0.87019524     0.86100
O451        O  0.86796320  0.39082847  0.99864581    -0.78000
O452        O  0.87177766  0.35815925  0.00675377    -0.88200
C453        C  0.86662754  0.43464191  0.93876590     0.85700
O454        O  0.90666067  0.35774401  0.95802005    -0.66400
O455        O  0.86745898  0.40481867  0.81717087    -0.85700
C456        C  0.91412664  0.37502473  0.95358158     0.86500
C457        C  0.86791716  0.37549225  0.01952759     1.08100
H458        H  0.89048995  0.39756985  0.88435034     0.39900
O459        O  0.87559117  0.39579605  0.89054345    -1.08400
O460        O  0.83828695  0.37294094  0.87447798    -0.65000
Ni461      Ni  0.86845195  0.36897799  0.87869877     1.26300
O462        O  0.90233371  0.38991295  0.94848844    -0.65300
O463        O  0.87244430  0.37226327  0.82473938    -0.77600
C464        C  0.87274444  0.32806252  0.88678802     0.85900
O465        O  0.86228746  0.34132126  0.87014945    -0.64700
Ni466      Ni  0.86113068  0.41649915  0.86590511     1.27400
Ni467      Ni  0.87203827  0.39389856  0.94455376     1.26100
H468        H  0.84975901  0.36554157  0.93886182     0.40400
O469        O  0.88088600  0.68072800  0.04626376    -0.79500
O470        O  0.87779410  0.59190076  0.99919703    -0.64200
O471        O  0.86207631  0.64536035  0.02172525    -1.10800
C472        C  0.86496950  0.62240812  0.14957211     1.07400
O473        O  0.85216904  0.58303666  0.03822767    -0.77400
O474        O  0.83091333  0.60464612  0.08930888    -0.65000
Ni475      Ni  0.87651386  0.66702937  0.99849603     1.34900
C476        C  0.82268013  0.62142891  0.08477034     0.86100
O477        O  0.86812478  0.62279646  0.95535990    -0.78000
O478        O  0.87282386  0.65551954  0.94867846    -0.88200
C479        C  0.86655066  0.57836491  0.01429675     0.85700
O480        O  0.90468747  0.65701331  0.00056800    -0.66400
O481        O  0.86472193  0.60515001  0.13493135    -0.85700
C482        C  0.91200068  0.63968022  0.00288439     0.86500
C483        C  0.86964427  0.63823811  0.93499725     1.08100
H484        H  0.88737408  0.61570378  0.06915760     0.39900
O485        O  0.87257388  0.61657502  0.06276562    -1.08400
O486        O  0.83360174  0.63677319  0.07737590    -0.65000
Ni487      Ni  0.86353011  0.64249941  0.07576189     1.26300
O488        O  0.90034060  0.62441138  0.00568991    -0.65300
O489        O  0.86472617  0.63824888  0.12996367    -0.77600
C490        C  0.86723125  0.68341011  0.07298913     0.85900
O491        O  0.85583778  0.66933024  0.08559716    -0.64700
Ni492      Ni  0.85896151  0.59468101  0.08592664     1.27400
Ni493      Ni  0.87044956  0.61906762  0.00889829     1.26100
H494        H  0.84736702  0.64661484  0.01494204     0.40400
O495        O  0.88661602  0.67068835  0.53908193    -0.79500
O496        O  0.87744840  0.58198602  0.50327013    -0.64200
O497        O  0.86426940  0.63667492  0.52016413    -1.10800
C498        C  0.86322857  0.62150340  0.65003069     1.07400
O499        O  0.85639962  0.57079310  0.54990086    -0.77400
O500        O  0.83040847  0.60010969  0.57730508    -0.65000
Ni501      Ni  0.87929705  0.65691251  0.49351989     1.34900
C502        C  0.82398983  0.61784926  0.57915951     0.86100
O503        O  0.86932750  0.61201208  0.45616229    -0.78000
O504        O  0.87278683  0.64473718  0.44624278    -0.88200
C505        C  0.86808461  0.56782773  0.52044637     0.85700
O506        O  0.90675230  0.64533499  0.49259515    -0.66400
O507        O  0.85649413  0.60487732  0.63803195    -0.85700
C508        C  0.91375884  0.62818209  0.49867103     0.86500
C509        C  0.86980550  0.62712015  0.43459551     1.08100
H510        H  0.88826667  0.60686750  0.57173126     0.39900
O511        O  0.87365178  0.60888475  0.56505297    -1.08400
O512        O  0.83661032  0.63257446  0.58024144    -0.65000
Ni513      Ni  0.86695133  0.63632437  0.57406072     1.26300
O514        O  0.90170743  0.61366234  0.50679461    -0.65300
O515        O  0.87008854  0.63491309  0.62781342    -0.77600
C516        C  0.87249333  0.67687183  0.56228904     0.85900
O517        O  0.86100729  0.66426324  0.57975078    -0.64700
Ni518      Ni  0.85700642  0.58956665  0.59166126     1.27400
Ni519      Ni  0.87144961  0.60968434  0.51058136     1.26100
H520        H  0.84946629  0.63821377  0.51423996     0.40400
O521        O  0.61784497  0.68289536  0.14599638    -0.79500
O522        O  0.61126674  0.58965063  0.17783335    -0.64200
O523        O  0.62841578  0.64311607  0.15680585    -1.10800
C524        C  0.62294119  0.62531099  0.02831336     1.07400
O525        O  0.62690381  0.57570551  0.12745748    -0.77400
O526        O  0.65532229  0.60255767  0.10063201    -0.65000
Ni527      Ni  0.61414851  0.66358464  0.18523029     1.34900
C528        C  0.66335416  0.61968155  0.09726255     0.86100
O529        O  0.62535470  0.61910984  0.22097045    -0.78000
O530        O  0.60984051  0.64816700  0.23041939    -0.88200
C531        C  0.61803464  0.57443562  0.16005250     0.85700
O532        O  0.58732371  0.65559923  0.16613125    -0.66400
O533        O  0.62990445  0.60903469  0.04034645    -0.85700
C534        C  0.57892183  0.63860798  0.17012776     0.86500
C535        C  0.61802266  0.63250079  0.24291707     1.08100
H536        H  0.59891035  0.61365226  0.11068762     0.39900
O537        O  0.61398521  0.61492027  0.11473619    -1.08400
O538        O  0.65223191  0.63521603  0.09377054    -0.65000
Ni539      Ni  0.62256728  0.64148782  0.10335272     1.26300
O540        O  0.58995044  0.62332711  0.17689296    -0.65300
O541        O  0.61635961  0.63893353  0.05051415    -0.77600
C542        C  0.62580837  0.68377024  0.11264969     0.85900
O543        O  0.63043932  0.66847647  0.09309385    -0.64700
Ni544      Ni  0.62783042  0.59419574  0.08643478     1.27400
Ni545      Ni  0.61952416  0.61659162  0.16802853     1.26100
H546        H  0.64349071  0.64436396  0.16084076     0.40400
O547        O  0.61808925  0.68094464  0.64501021    -0.79500
O548        O  0.61509921  0.58774815  0.67882982    -0.64200
O549        O  0.62955002  0.64173877  0.65607689    -1.10800
C550        C  0.62165280  0.62086906  0.52836196     1.07400
O551        O  0.63619537  0.57611182  0.63319265    -0.77400
O552        O  0.65909589  0.60299905  0.59423457    -0.65000
Ni553      Ni  0.61440534  0.66170702  0.68407222     1.34900
C554        C  0.66550834  0.62073239  0.59209246     0.86100
O555        O  0.62826943  0.61852335  0.72142834    -0.78000
O556        O  0.61005182  0.64622812  0.72899322    -0.88200
C557        C  0.62439680  0.57329830  0.66234322     0.85700
O558        O  0.58819441  0.65258559  0.66420436    -0.66400
O559        O  0.62822509  0.60450921  0.54092114    -0.85700
C560        C  0.58056030  0.63562332  0.67179264     0.86500
C561        C  0.61999512  0.63179981  0.74260422     1.08100
H562        H  0.60171623  0.61015094  0.61216533     0.39900
O563        O  0.61670985  0.61237290  0.61578788    -1.27600
O564        O  0.65305914  0.63541893  0.59235059    -0.65000
Ni565      Ni  0.62315312  0.63917694  0.60275635     1.26300
O566        O  0.59226044  0.62070261  0.67822126    -0.65300
O567        O  0.61687739  0.63541864  0.55001420    -0.77600
C568        C  0.62490886  0.68166377  0.61092851     0.85900
O569        O  0.62872895  0.66636383  0.59095375    -0.64700
Ni570      Ni  0.63156577  0.59183123  0.58887300     1.27400
Ni571      Ni  0.62214962  0.61499201  0.66868072     1.26100
H572        H  0.64458023  0.64373272  0.65958753     0.40400
O573        O  0.61335095  0.32893218  0.27877964    -0.79500
O574        O  0.60734787  0.42250171  0.25680784    -0.64200
O575        O  0.62299749  0.36877222  0.27269655    -1.10800
C576        C  0.62001042  0.38367417  0.40234038     1.07400
O577        O  0.62419214  0.43534497  0.30593809    -0.77400
O578        O  0.65168082  0.40648865  0.32467212    -0.65000
Ni579      Ni  0.60862252  0.34943235  0.24266088     1.34900
C580        C  0.65879543  0.38911196  0.32788406     0.86100
O581        O  0.62149522  0.39402500  0.21103504    -0.78000
O582        O  0.60352500  0.36659541  0.20023166    -0.88200
C583        C  0.61517942  0.43722719  0.27422536     0.85700
O584        O  0.58232961  0.35648367  0.26660023    -0.66400
O585        O  0.62806818  0.39967453  0.38986185    -0.85700
C586        C  0.57396846  0.37352234  0.26561181     0.86500
C587        C  0.61378652  0.38155129  0.18813035     1.08100
H588        H  0.59452193  0.39821636  0.32370775     0.39900
O589        O  0.60945284  0.39633457  0.31799490    -1.08400
O590        O  0.64670543  0.37433909  0.33448055    -0.65000
Ni591      Ni  0.61684475  0.36932120  0.32671943     1.26300
O592        O  0.58476816  0.38905309  0.25733726    -0.65300
O593        O  0.61113119  0.37117749  0.38051782    -0.77600
C594        C  0.62021117  0.32716022  0.31225619     0.85900
O595        O  0.62339843  0.34188371  0.33414224    -0.64700
Ni596      Ni  0.62539577  0.41578928  0.34531041     1.27400
Ni597      Ni  0.61483671  0.39547241  0.26421957     1.26100
H598        H  0.63806970  0.36749295  0.26763459     0.40400
O599        O  0.60578744  0.33188231  0.80104749    -0.79500
O600        O  0.61442731  0.41933322  0.75328123    -0.64200
O601        O  0.62780627  0.36556287  0.77586311    -1.10800
C602        C  0.62856277  0.38920406  0.90268303     1.07400
O603        O  0.63997919  0.43024574  0.78992334    -0.77400
O604        O  0.66372189  0.40390801  0.82645504    -0.65000
Ni605      Ni  0.61236803  0.34428726  0.75311688     1.34900
C606        C  0.66932094  0.38608372  0.82971733     0.86100
O607        O  0.62213356  0.38732121  0.70892135    -0.78000
O608        O  0.61822447  0.35452384  0.70326901    -0.88200
C609        C  0.62604444  0.43341744  0.76513277     0.85700
O610        O  0.58469596  0.35581159  0.75449674    -0.66400
O611        O  0.63563232  0.40499982  0.88743239    -0.85700
C612        C  0.57785083  0.37321702  0.75994808     0.86500
C613        C  0.62141490  0.37150902  0.68884095     1.08100
H614        H  0.60517072  0.39860141  0.82540682     0.39900
O615        O  0.61957562  0.39578155  0.81713500    -1.08400
O616        O  0.65608139  0.37193879  0.83304477    -0.65000
Ni617      Ni  0.62560059  0.36897386  0.82997793     1.26300
O618        O  0.59016381  0.38798617  0.76428549    -0.65300
O619        O  0.62275054  0.37397932  0.88375309    -0.77600
C620        C  0.61972211  0.32769074  0.82516002     0.85900
O621        O  0.63094222  0.34139857  0.83955179    -0.64700
Ni622      Ni  0.63716663  0.41623400  0.83729993     1.27400
Ni623      Ni  0.62058943  0.39206403  0.76311179     1.26100
H624        H  0.64255597  0.36367091  0.76872973     0.40400
O625        O  0.17431619  0.60972734  0.07229011    -0.79500
O626        O  0.08108264  0.61825239  0.03100489    -0.64200
O627        O  0.13943963  0.62981614  0.04609335    -1.10800
C628        C  0.11646901  0.63204040  0.17624606     1.07400
O629        O  0.07401333  0.64448308  0.06641849    -0.77400
O630        O  0.09925520  0.66474881  0.11334811    -0.65000
Ni631      Ni  0.16145311  0.61431320  0.02401230     1.34900
C632        C  0.11775437  0.67133751  0.10583682     0.86100
O633        O  0.11477289  0.62219708  0.98229800    -0.78000
O634        O  0.15021555  0.61851178  0.97446601    -0.88200
C635        C  0.06812951  0.63134688  0.04285750     0.85700
O636        O  0.14827092  0.58878852  0.02567852    -0.66400
O637        O  0.09772942  0.63439335  0.16382660    -0.85700
C638        C  0.12936391  0.58267424  0.03126041     0.86500
C639        C  0.13164623  0.62097526  0.96134546     1.08100
H640        H  0.10638350  0.61063613  0.10051600     0.39900
O641        O  0.10836685  0.62391258  0.09130816    -1.08400
O642        O  0.13329591  0.65978600  0.09821297    -0.65000
Ni643      Ni  0.13691585  0.63107614  0.10027881     1.26300
O644        O  0.11391483  0.59427963  0.03863709    -0.65300
O645        O  0.13312927  0.63133198  0.15478804    -0.77600
C646        C  0.17985919  0.62348751  0.09492655     0.85900
O647        O  0.16638528  0.63622163  0.10617360    -0.64700
Ni648      Ni  0.08646977  0.63911332  0.11443123     1.27400
Ni649      Ni  0.11077722  0.62285547  0.03696699     1.26100
H650        H  0.14161109  0.64303901  0.03670337     0.40400
O651        O  0.17835974  0.61386053  0.56781685    -0.79500
O652        O  0.08333433  0.61672843  0.53240405    -0.64200
O653        O  0.14109710  0.63144590  0.54492160    -1.10800
C654        C  0.12023435  0.63357071  0.67625557     1.07400
O655        O  0.07408334  0.64203569  0.56864278    -0.77400
O656        O  0.09979467  0.66452746  0.61119389    -0.65000
Ni657      Ni  0.16353322  0.61701067  0.52103988     1.34900
C658        C  0.11807822  0.67172887  0.60406111     0.86100
O659        O  0.11553761  0.62328292  0.48252060    -0.78000
O660        O  0.15075252  0.61991519  0.47231654    -0.88200
C661        C  0.06927626  0.62859321  0.54486231     0.85700
O662        O  0.15215658  0.59075372  0.52556466    -0.66400
O663        O  0.10130844  0.63540385  0.66441677    -0.85700
C664        C  0.13358569  0.58370207  0.53100957     0.86500
C665        C  0.13189654  0.62213366  0.46042689     1.08100
H666        H  0.10976051  0.61049292  0.60067553     0.39900
O667        O  0.11097955  0.62386175  0.59158818    -1.08400
O668        O  0.13419229  0.66072166  0.59784665    -0.65000
Ni669      Ni  0.13935641  0.63235896  0.59933391     1.26300
O670        O  0.11754658  0.59480212  0.53726864    -0.65300
O671        O  0.13652606  0.63252676  0.65400527    -0.77600
C672        C  0.18284477  0.62785998  0.59067230     0.85900
O673        O  0.16850234  0.63915596  0.60399835    -0.64700
Ni674      Ni  0.08859110  0.63834039  0.61557787     1.27400
Ni675      Ni  0.11264764  0.62318790  0.53713637     1.26100
H676        H  0.14239314  0.64478482  0.53567686     0.40400
O677        O  0.13948095  0.43099102  0.44362047    -0.79500
O678        O  0.13219445  0.34078859  0.40735178    -0.64200
O679        O  0.11901061  0.39529958  0.42646004    -1.10800
C680        C  0.11834492  0.38066423  0.55490406     1.07400
O681        O  0.12215088  0.32785429  0.46291430    -0.77400
O682        O  0.09080625  0.35560495  0.47484969    -0.65000
Ni683      Ni  0.13295113  0.41574299  0.39886037     1.34900
C684        C  0.08214195  0.37249287  0.47783134     0.86100
O685        O  0.12099918  0.37037854  0.36289662    -0.78000
O686        O  0.12721422  0.40256205  0.35164975    -0.88200
C687        C  0.12882495  0.32601945  0.42877253     0.85700
O688        O  0.16086192  0.40517168  0.39953623    -0.66400
O689        O  0.10897688  0.36560714  0.54158506    -0.85700
C690        C  0.16796959  0.38775213  0.40139576     0.86500
C691        C  0.12256095  0.38510612  0.34060870     1.08100
H692        H  0.14640473  0.36666407  0.47510881     0.39900
O693        O  0.13139334  0.36793435  0.47040773    -1.08400
O694        O  0.09265769  0.38824501  0.48562542    -0.65000
Ni695      Ni  0.12285523  0.39483017  0.47984009     1.26300
O696        O  0.15614047  0.37272587  0.40675822    -0.65300
O697        O  0.12734641  0.39324215  0.53337238    -0.77600
C698        C  0.12646237  0.43594394  0.47002738     0.85900
O699        O  0.11540578  0.42254454  0.48649885    -0.64700
Ni700      Ni  0.11612796  0.34848786  0.49930047     1.27400
Ni701      Ni  0.12621472  0.36837912  0.41629645     1.26100
H702        H  0.10408495  0.39672307  0.42141580     0.40400
O703        O  0.13744491  0.43153702  0.95155634    -0.79500
O704        O  0.13062823  0.34239461  0.90706235    -0.64200
O705        O  0.11695569  0.39696532  0.92635692    -1.10800
C706        C  0.11373613  0.37525386  0.05487669     1.07400
O707        O  0.10283333  0.33473661  0.94226398    -0.77400
O708        O  0.07981975  0.35897558  0.98686692    -0.65000
Ni709      Ni  0.13302258  0.41780663  0.90406674     1.34900
C710        C  0.07337212  0.37642683  0.98180490     0.86100
O711        O  0.12428684  0.37355554  0.86092265    -0.78000
O712        O  0.12955079  0.40617426  0.85459719    -0.88200
C713        C  0.11786819  0.32934733  0.92004467     0.85700
O714        O  0.16044629  0.40651973  0.90824951    -0.66400
O715        O  0.11060048  0.35817392  0.04046366    -0.85700
C716        C  0.16718817  0.38908907  0.91223908     0.86500
C717        C  0.12620958  0.38901479  0.84059409     1.08100
H718        H  0.13820989  0.36605032  0.97773834     0.39900
O719        O  0.12389362  0.36798336  0.96924530    -1.08400
O720        O  0.08591135  0.39114408  0.97885182    -0.65000
Ni721      Ni  0.11640186  0.39474203  0.98055483     1.26300
O722        O  0.15490542  0.37417178  0.91535336    -0.65300
O723        O  0.11608341  0.39088918  0.03495254    -0.77600
C724        C  0.12347498  0.43572795  0.97694054     0.85900
O725        O  0.11066223  0.42247032  0.98902009    -0.64700
Ni726      Ni  0.10716046  0.34728458  0.99062851     1.27400
Ni727      Ni  0.12446532  0.37012752  0.91507690     1.26100
H728        H  0.10261480  0.39872313  0.91788750     0.40400
O729        O  0.36365733  0.43046091  0.34435900    -0.79500
O730        O  0.36073115  0.33724324  0.37154152    -0.64200
O731        O  0.37667714  0.39127053  0.35533155    -1.10800
C732        C  0.37540892  0.37642166  0.22545112     1.07400
O733        O  0.37439457  0.32408280  0.31812147    -0.77400
O734        O  0.40549941  0.35184844  0.30179301    -0.65000
Ni735      Ni  0.36054808  0.41075930  0.38308224     1.34900
C736        C  0.41390289  0.36889588  0.29859786     0.86100
O737        O  0.37330235  0.36634866  0.41736340    -0.78000
O738        O  0.35626381  0.39458753  0.42741833    -0.88200
C739        C  0.36542647  0.32246287  0.35062665     0.85700
O740        O  0.33446688  0.40200506  0.36221832    -0.66400
O741        O  0.38412990  0.36081693  0.23714082    -0.85700
C742        C  0.32662992  0.38480569  0.36585018     0.86500
C743        C  0.36500582  0.37911127  0.43970717     1.08100
H744        H  0.34889088  0.36242387  0.30484953     0.39900
O745        O  0.36383121  0.36373995  0.31009704    -1.08400
O746        O  0.40265667  0.38432761  0.29388905    -0.65000
Ni747      Ni  0.37255625  0.39044186  0.30160146     1.26300
O748        O  0.33821637  0.36981471  0.37198530    -0.65300
O749        O  0.36738522  0.38894661  0.24843007    -0.77600
C750        C  0.37373135  0.43226683  0.31292843     0.85900
O751        O  0.38066962  0.41743781  0.29432222    -0.64700
Ni752      Ni  0.37898937  0.34422989  0.28073722     1.27400
Ni753      Ni  0.36834255  0.36443745  0.36401766     1.26100
H754        H  0.39153474  0.39294511  0.36095596     0.40400
O755        O  0.35543963  0.43046140  0.82880590    -0.79500
O756        O  0.36144128  0.34246754  0.87493756    -0.64200
O757        O  0.37591562  0.39644092  0.85382396    -1.10800
C758        C  0.37597066  0.37257037  0.72579864     1.07400
O759        O  0.38860749  0.33363010  0.83862240    -0.77400
O760        O  0.41100039  0.35699735  0.79161005    -0.65000
Ni761      Ni  0.36041571  0.41767663  0.87651087     1.34900
C762        C  0.41812472  0.37445403  0.79457687     0.86100
O763        O  0.36857743  0.37415387  0.92012577    -0.78000
O764        O  0.36425563  0.40695717  0.92634928    -0.88200
C765        C  0.37398649  0.32917259  0.86242922     0.85700
O766        O  0.33266407  0.40647072  0.87431835    -0.66400
O767        O  0.37910467  0.35570310  0.74045831    -0.85700
C768        C  0.32561400  0.38897512  0.87144466     0.86500
C769        C  0.36686192  0.38983968  0.94035452     1.08100
H770        H  0.35319584  0.36486616  0.80447269     0.39900
O771        O  0.36769424  0.36679990  0.81209967    -1.08400
O772        O  0.40603857  0.38942432  0.79826139    -0.65000
Ni773      Ni  0.37543779  0.39327698  0.79959267     1.26300
O774        O  0.33759807  0.37401286  0.86733640    -0.65300
O775        O  0.37446579  0.38852615  0.74548088    -0.77600
C776        C  0.36912093  0.43438426  0.80285575     0.85900
O777        O  0.38134109  0.42082726  0.79003603    -0.64700
Ni778      Ni  0.38340173  0.34553489  0.79030873     1.27400
Ni779      Ni  0.36796176  0.36989128  0.86610271     1.26100
H780        H  0.39048488  0.39823456  0.86132186     0.40400
O781        O  0.36478044  0.57539814  0.18758280    -0.79500
O782        O  0.37152955  0.66683683  0.15190956    -0.64200
O783        O  0.38322735  0.61221778  0.16951889    -1.10800
C784        C  0.38788470  0.62872205  0.29730279     1.07400
O785        O  0.38242895  0.68023293  0.20615819    -0.77400
O786        O  0.41324520  0.65180403  0.21046290    -0.65000
Ni787      Ni  0.36692477  0.59246351  0.14439160     1.34900
C788        C  0.42130469  0.63466437  0.21195332     0.86100
O789        O  0.38125417  0.63675551  0.10651106    -0.78000
O790        O  0.36754540  0.60663528  0.09744868    -0.88200
C791        C  0.37525759  0.68174714  0.17292849     0.85700
O792        O  0.34024240  0.60331673  0.15857128    -0.66400
O793        O  0.39783904  0.64274286  0.28121138    -0.85700
C794        C  0.33390214  0.62099031  0.15711043     0.86500
C795        C  0.37449874  0.62304383  0.08490390     1.08100
H796        H  0.35784979  0.64244215  0.22169889     0.39900
O797        O  0.37255459  0.64061958  0.21491312    -1.08400
O798        O  0.41094275  0.61963040  0.22430973    -0.65000
Ni799      Ni  0.38055589  0.61376478  0.22351831     1.26300
O800        O  0.34659061  0.63563861  0.15457714    -0.65300
O801        O  0.37747938  0.61630023  0.27779500    -0.77600
C802        C  0.37689684  0.57237661  0.21525517     0.85900
O803        O  0.38759642  0.58638900  0.22992518    -0.64700
Ni804      Ni  0.38946263  0.65980017  0.24081963     1.27400
Ni805      Ni  0.37685183  0.63930187  0.16030448     1.26100
H806        H  0.39784649  0.60997990  0.16202200     0.40400
O807        O  0.36465976  0.58197407  0.69082585    -0.79500
O808        O  0.37289443  0.67108872  0.65295275    -0.64200
O809        O  0.38598452  0.61673271  0.67060105    -1.10800
C810        C  0.37907958  0.63590029  0.80072608     1.07400
O811        O  0.39546048  0.68043863  0.69662375    -0.77400
O812        O  0.41611468  0.65568069  0.74029768    -0.65000
Ni813      Ni  0.37181188  0.59594008  0.64505870     1.34900
C814        C  0.42398543  0.63889716  0.73268286     0.86100
O815        O  0.38311457  0.64056407  0.60586320    -0.78000
O816        O  0.37798921  0.60797613  0.59716885    -0.88200
C817        C  0.38316851  0.68465653  0.66985023     0.85700
O818        O  0.34420436  0.60692649  0.64691690    -0.66400
O819        O  0.38158125  0.65352931  0.78916565    -0.85700
C820        C  0.33689973  0.62421803  0.65059133     0.86500
C821        C  0.38219451  0.62516851  0.58456627     1.08100
H822        H  0.35982510  0.64602417  0.72025741     0.39900
O823        O  0.37483681  0.64493297  0.71444229    -1.08400
O824        O  0.41263636  0.62357153  0.72725597    -0.65000
Ni825      Ni  0.38264394  0.61821629  0.72463147     1.26300
O826        O  0.34875112  0.63924319  0.65532149    -0.65300
O827        O  0.37936041  0.62081466  0.77878629    -0.77600
C828        C  0.37753704  0.57727836  0.71637627     0.85900
O829        O  0.38906217  0.59056771  0.73157524    -0.64700
Ni830      Ni  0.38805889  0.66592339  0.74164782     1.27400
Ni831      Ni  0.37887046  0.64351280  0.66019873     1.26100
H832        H  0.40087261  0.61517855  0.66410665     0.40400
C833        C  0.36035683  0.61639411  0.98157665     0.14000
C834        C  0.37479758  0.62912821  0.96348903     0.01000
C835        C  0.38869479  0.64062086  0.98525249     0.16000
C836        C  0.38847148  0.63903683  0.02489666     0.25400
C837        C  0.37427111  0.62590237  0.04322054    -0.40900
C838        C  0.35996071  0.61485367  0.02102686     0.32400
C839        C  0.37520012  0.63039724  0.92178875     0.01100
F840        F  0.40273936  0.65307168  0.96796998    -0.13300
F841        F  0.34531841  0.60267278  0.03746261    -0.13800
C842        C  0.36522393  0.64612822  0.90401395     0.16000
C843        C  0.36574578  0.64748865  0.86446671     0.25400
C844        C  0.37632853  0.63310400  0.84209231    -0.40900
C845        C  0.38574375  0.61699269  0.86005071     0.32400
C846        C  0.38516858  0.61567309  0.89967056     0.14100
F847        F  0.35497657  0.66015498  0.92505720    -0.13200
F848        F  0.39637061  0.60304709  0.83942438    -0.13800
F849        F  0.35584161  0.66285556  0.84802323    -0.16000
F850        F  0.39478616  0.60029043  0.91657473    -0.14600
F851        F  0.34653651  0.60549285  0.96090456    -0.14600
F852        F  0.40253960  0.64988295  0.04511182    -0.16000
C853        C  0.37615636  0.61359360  0.39975576     0.14000
C854        C  0.38852644  0.62727520  0.42009964     0.01000
C855        C  0.40158244  0.64049261  0.39988787     0.16000
C856        C  0.40187029  0.64048120  0.36019998     0.25400
C857        C  0.38901811  0.62717549  0.33949466    -0.40900
C858        C  0.37648772  0.61343920  0.35992141     0.32400
C859        C  0.38820104  0.62742095  0.46234054     0.01100
F860        F  0.41433943  0.65333789  0.41863052    -0.13300
F861        F  0.36419568  0.60007336  0.34154089    -0.13800
C862        C  0.39293056  0.61015169  0.48195279     0.16000
C863        C  0.39176899  0.60976221  0.52153308     0.25400
C864        C  0.38580630  0.62670752  0.54276457    -0.40900
C865        C  0.38199447  0.64431273  0.52315972     0.32400
C866        C  0.38313604  0.64464075  0.48329468     0.14100
F867        F  0.39880791  0.59355285  0.46268593    -0.13200
F868        F  0.37628204  0.66097811  0.54233480    -0.13800
F869        F  0.39650507  0.59261993  0.53902531    -0.16000
F870        F  0.37852435  0.66160958  0.46512087    -0.14600
F871        F  0.36328410  0.60065463  0.41853185    -0.14600
F872        F  0.41479751  0.65368100  0.34223854    -0.16000
C873        C  0.37013818  0.52143121  0.71419061     0.14000
C874        C  0.37554012  0.51595430  0.75102969     0.01000
C875        C  0.38234946  0.53073061  0.77651216     0.16000
C876        C  0.38370797  0.55061093  0.76531067     0.25400
C877        C  0.37788803  0.55616992  0.72853440    -0.40900
C878        C  0.37127186  0.54120710  0.70307295     0.32400
C879        C  0.37352248  0.49492499  0.76303918     0.01100
F880        F  0.38766387  0.52587250  0.81235872    -0.13300
F881        F  0.36590773  0.54566452  0.66702844    -0.13800
C882        C  0.38600956  0.48005567  0.74574652     0.16000
C883        C  0.38443508  0.46036269  0.75793291     0.25400
C884        C  0.37009151  0.45501386  0.78750174    -0.40900
C885        C  0.35693463  0.46996081  0.80349580     0.32400
C886        C  0.35874701  0.48958023  0.79153611     0.14100
F887        F  0.40008114  0.48469673  0.71744998    -0.13200
F888        F  0.34226907  0.46576975  0.83111731    -0.13800
F889        F  0.39709802  0.44662525  0.74087394    -0.16000
F890        F  0.34577696  0.50340776  0.80757628    -0.14600
F891        F  0.36314028  0.50764175  0.68914485    -0.14600
F892        F  0.39007182  0.56443082  0.79081539    -0.16000
C893        C  0.35247996  0.38571037  0.54507437     0.14000
C894        C  0.36844166  0.37445739  0.56153649     0.01000
C895        C  0.38239845  0.36360666  0.53772271     0.16000
C896        C  0.38077364  0.36441264  0.49815597     0.25400
C897        C  0.36530857  0.37630884  0.48154013    -0.40900
C898        C  0.35096255  0.38672070  0.50560688     0.32400
C899        C  0.37048604  0.37408258  0.60348830     0.01100
F900        F  0.39814101  0.35275121  0.55275400    -0.13300
F901        F  0.33536190  0.39794899  0.49105924    -0.13800
C902        C  0.36997390  0.35608766  0.62279851     0.16000
C903        C  0.37181606  0.35562302  0.66223719     0.25400
C904        C  0.37399994  0.37327035  0.68364333    -0.40900
C905        C  0.37447043  0.39133486  0.66408156     0.32400
C906        C  0.37281276  0.39169894  0.62447045     0.14100
F907        F  0.36722571  0.33886369  0.60349010    -0.13200
F908        F  0.37689315  0.40869679  0.68304165    -0.13800
F909        F  0.37117563  0.33774037  0.67928306    -0.16000
F910        F  0.37389567  0.40930930  0.60647336    -0.14600
F911        F  0.33820590  0.39567673  0.56730592    -0.14600
F912        F  0.39495571  0.35420242  0.47619433    -0.16000
C913        C  0.37545185  0.40318519  0.04406373     0.14000
C914        C  0.36952038  0.38567165  0.06244104     0.01000
C915        C  0.36240502  0.36955572  0.04068920     0.16000
C916        C  0.36153160  0.37082993  0.00106871     0.25400
C917        C  0.36782010  0.38829333  0.98240250    -0.40900
C918        C  0.37462251  0.40451494  0.00450518     0.32400
C919        C  0.37146953  0.38396946  0.10415703     0.01100
F920        F  0.35603790  0.35263664  0.05796412    -0.13300
F921        F  0.38102946  0.42157582  0.98782411    -0.13800
C922        C  0.35937504  0.39592615  0.12909216     0.16000
C923        C  0.36100703  0.39391769  0.16849787     0.25400
C924        C  0.37483269  0.37986582  0.18374828    -0.40900
C925        C  0.38740020  0.36834462  0.15841379     0.32400
C926        C  0.38565585  0.37036646  0.11914997     0.14100
F927        F  0.34552259  0.40918908  0.11523599    -0.13200
F928        F  0.40151478  0.35508373  0.17145908    -0.13800
F929        F  0.34856384  0.40535344  0.19156424    -0.16000
F930        F  0.39802844  0.35911317  0.09560924    -0.14600
F931        F  0.38262422  0.41886783  0.06442016    -0.14600
F932        F  0.35404256  0.35512589  0.98113839    -0.16000
C933        C  0.37722412  0.48826300  0.30908500     0.14000
C934        C  0.37978924  0.49168942  0.27006351     0.01000
C935        C  0.38140453  0.47543800  0.24501847     0.16000
C936        C  0.38016169  0.45607164  0.25879664     0.25400
C937        C  0.37695165  0.45260553  0.29792380    -0.40900
C938        C  0.37584872  0.46901660  0.32289656     0.32400
C939        C  0.37955114  0.51223286  0.25562769     0.01100
F940        F  0.38399560  0.47834812  0.20711921    -0.13300
F941        F  0.37335559  0.46652305  0.36093669    -0.13800
C942        C  0.39504080  0.52609850  0.26647895     0.16000
C943        C  0.39417767  0.54570015  0.25396521     0.25400
C944        C  0.37767556  0.55186698  0.23047148    -0.40900
C945        C  0.36205882  0.53782146  0.22006046     0.32400
C946        C  0.36306560  0.51831319  0.23241384     0.14100
F947        F  0.41119990  0.52054731  0.28884362    -0.13200
F948        F  0.34547415  0.54291605  0.19823594    -0.13800
F949        F  0.40974039  0.55847262  0.26425093    -0.16000
F950        F  0.34752726  0.50541531  0.22243864    -0.14600
F951        F  0.37525145  0.50364799  0.33383459    -0.14600
F952        F  0.38136807  0.44079078  0.23367412    -0.16000
C953        C  0.22595129  0.40045520  0.91880878     0.14000
C954        C  0.23505329  0.38407836  0.90007583     0.01000
C955        C  0.22187925  0.36827392  0.88930021     0.16000
C956        C  0.19981575  0.36931323  0.89528072     0.25400
C957        C  0.19055888  0.38629672  0.91180275    -0.40900
C958        C  0.20395864  0.40159661  0.92452406     0.32400
C959        C  0.25808511  0.38413103  0.89008350     0.01100
F960        F  0.23025981  0.35229995  0.87108383    -0.13300
F961        F  0.19573979  0.41785673  0.94206514    -0.13800
C962        C  0.27163697  0.36952915  0.90375497     0.16000
C963        C  0.29356484  0.37046751  0.89599988     0.25400
C964        C  0.30229481  0.38612673  0.87466097    -0.40900
C965        C  0.28857144  0.40032610  0.85993496     0.32400
C966        C  0.26670624  0.39928590  0.86744183     0.14100
F967        F  0.26376812  0.35490922  0.92615776    -0.13200
F968        F  0.29637494  0.41536270  0.83848112    -0.13800
F969        F  0.30637924  0.35677007  0.91136924    -0.16000
F970        F  0.25390212  0.41323118  0.85283088    -0.14600
F971        F  0.23839659  0.41555517  0.93101914    -0.14600
F972        F  0.18745741  0.35424581  0.88271327    -0.16000
C973        C  0.10220167  0.37664222  0.65884132     0.14000
C974        C  0.12046016  0.38377848  0.67661439     0.01000
C975        C  0.13755966  0.39086763  0.65427193     0.16000
C976        C  0.13654525  0.39063766  0.61463164     0.25400
C977        C  0.11842664  0.38319882  0.59666391    -0.40900
C978        C  0.10118230  0.37631054  0.61919658     0.32400
C979        C  0.12139429  0.38474562  0.71849866     0.01100
F980        F  0.15546150  0.39760593  0.67095709    -0.13300
F981        F  0.08325208  0.36938136  0.60283346    -0.13800
C982        C  0.12207636  0.36752723  0.74029400     0.16000
C983        C  0.12362257  0.36875061  0.77992756     0.25400
C984        C  0.12437836  0.38731001  0.79848630    -0.40900
C985        C  0.12329131  0.40449487  0.77613215     0.32400
C986        C  0.12188186  0.40315605  0.73672627     0.14100
F987        F  0.12168535  0.34953036  0.72308533    -0.13200
F988        F  0.12338773  0.42277548  0.79217787    -0.13800
F989        F  0.12465801  0.35175395  0.79987282    -0.16000
F990        F  0.12074477  0.41995820  0.71619495    -0.14600
F991        F  0.08526223  0.37025110  0.67993432    -0.14600
F992        F  0.15367417  0.39681766  0.59382484    -0.16000
C993        C  0.10947224  0.39574674  0.23851268     0.14000
C994        C  0.11728804  0.37891273  0.21949511     0.01000
C995        C  0.12537844  0.36332246  0.24094989     0.16000
C996        C  0.12626141  0.36487663  0.28062175     0.25400
C997        C  0.11926944  0.38213666  0.29943246    -0.40900
C998        C  0.11054608  0.39739806  0.27796395     0.32400
C999        C  0.11689451  0.37779254  0.17735630     0.01100
F1000       F  0.13316313  0.34689592  0.22340097    -0.13300
F1001       F  0.10296408  0.41398906  0.29522780    -0.13800
C1002       C  0.12648284  0.39267009  0.15510519     0.16000
C1003       C  0.12528674  0.39210601  0.11540725     0.25400
C1004       C  0.11461991  0.37651359  0.09707431    -0.40900
C1005       C  0.10518871  0.36154468  0.11961179     0.32400
C1006       C  0.10631269  0.36222060  0.15918426     0.14100
F1007       F  0.13733574  0.40763310  0.17186906    -0.13200
F1008       F  0.09439310  0.34634143  0.10351325    -0.13800
F1009       F  0.13501641  0.40658224  0.09499696    -0.16000
F1010       F  0.09651439  0.34786614  0.17983982    -0.14600
F1011       F  0.10065800  0.41062417  0.21880139    -0.14600
F1012       F  0.13493994  0.34993887  0.30037327    -0.16000
C1013       C  0.27080287  0.36576521  0.38763262     0.14000
C1014       C  0.25838320  0.38100154  0.37327061     0.01000
C1015       C  0.26834986  0.39635537  0.35306661     0.16000
C1016       C  0.29046359  0.39708929  0.34904349     0.25400
C1017       C  0.30314033  0.38244573  0.36526844    -0.40900
C1018       C  0.29298597  0.36643816  0.38366847     0.32400
C1019       C  0.23527453  0.38188593  0.38188266     0.01100
F1020       F  0.25660802  0.41094993  0.33794905    -0.13300
F1021       F  0.30448686  0.35199787  0.39982962    -0.13800
C1022       C  0.22704244  0.39793415  0.40283887     0.16000
C1023       C  0.20522586  0.39955196  0.40988246     0.25400
C1024       C  0.19115876  0.38502375  0.39643599    -0.40900
C1025       C  0.19944451  0.36861378  0.37638055     0.32400
C1026       C  0.22135764  0.36710641  0.36903912     0.14100
F1027       F  0.24022448  0.41208503  0.41659166    -0.13200
F1028       F  0.18627140  0.35454203  0.36231518    -0.13800
F1029       F  0.19785616  0.41532753  0.43010832    -0.16000
F1030       F  0.22890882  0.35161932  0.34821987    -0.14600
F1031       F  0.26152509  0.35081559  0.40742388    -0.14600
F1032       F  0.29944084  0.41238934  0.32982357    -0.16000
C1033       C  0.24259181  0.62915763  0.58623981     0.14000
C1034       C  0.24750757  0.63291817  0.62426491     0.01000
C1035       C  0.23110719  0.63621644  0.65112987     0.16000
C1036       C  0.20988104  0.63515886  0.64016362     0.25400
C1037       C  0.20496826  0.63048422  0.60233672    -0.40900
C1038       C  0.22149413  0.62787898  0.57535530     0.32400
C1039       C  0.26966611  0.63103995  0.63598415     0.01100
F1040       F  0.23565556  0.63951893  0.68814490    -0.13300
F1041       F  0.21719259  0.62409182  0.53837445    -0.13800
C1042       C  0.28225862  0.64769022  0.64334627     0.16000
C1043       C  0.30405583  0.64560420  0.64943580     0.25400
C1044       C  0.31350249  0.62672767  0.64818074    -0.40900
C1045       C  0.30030103  0.61004637  0.64270475     0.32400
C1046       C  0.27870635  0.61226123  0.63652147     0.14100
F1047       F  0.27360173  0.66597974  0.64308400    -0.13200
F1048       F  0.30822239  0.59145707  0.64222755    -0.13800
F1049       F  0.31588484  0.66209999  0.65541856    -0.16000
F1050       F  0.26660668  0.59599336  0.62987745    -0.14600
F1051       F  0.25832178  0.62618025  0.55985930    -0.14600
F1052       F  0.19418745  0.63764649  0.66678599    -0.16000
C1053       C  0.14628471  0.52856139  0.52165208     0.14000
C1054       C  0.12637417  0.51999581  0.51406781     0.01000
C1055       C  0.10842950  0.53235477  0.51530754     0.16000
C1056       C  0.11051180  0.55282773  0.52244245     0.25400
C1057       C  0.13066759  0.56157279  0.52832578    -0.40900
C1058       C  0.14843645  0.54891645  0.52852362     0.32400
C1059       C  0.12498711  0.49856145  0.50236145     0.01100
F1060       F  0.08895124  0.52480536  0.50773646    -0.13300
F1061       F  0.16817665  0.55620268  0.53490939    -0.13800
C1062       C  0.11198266  0.48478544  0.52189449     0.16000
C1063       C  0.11220700  0.46451396  0.51171961     0.25400
C1064       C  0.12542894  0.45748754  0.48162295    -0.40900
C1065       C  0.13787758  0.47159115  0.46154589     0.32400
C1066       C  0.13756741  0.49163571  0.47166103     0.14100
F1067       F  0.09944247  0.49084714  0.55151376    -0.13200
F1068       F  0.15057244  0.46614444  0.43166100    -0.13800
F1069       F  0.09960392  0.45181307  0.53160522    -0.16000
F1070       F  0.14960975  0.50444680  0.45089916    -0.14600
F1071       F  0.16392250  0.51713966  0.52196372    -0.14600
F1072       F  0.09282505  0.56416398  0.52185390    -0.16000
C1073       C  0.11161517  0.61634983  0.86035136     0.14000
C1074       C  0.12792762  0.62591467  0.83952932     0.01000
C1075       C  0.14533601  0.63373166  0.85893378     0.16000
C1076       C  0.14640729  0.63214900  0.89842314     0.25400
C1077       C  0.13002843  0.62274252  0.91948564    -0.40900
C1078       C  0.11263166  0.61478182  0.89998747     0.32400
C1079       C  0.12650701  0.62827137  0.79774540     0.01100
F1080       F  0.16108504  0.64338348  0.83968627    -0.13300
F1081       F  0.09694221  0.60498041  0.91910912    -0.13800
C1082       C  0.10996229  0.63930246  0.78261618     0.16000
C1083       C  0.10825827  0.64138554  0.74330681     0.25400
C1084       C  0.12310752  0.63244198  0.71808251    -0.40900
C1085       C  0.14010690  0.62189331  0.73341062     0.32400
C1086       C  0.14174256  0.61980804  0.77285880     0.14100
F1087       F  0.09557757  0.64834503  0.80607146    -0.13200
F1088       F  0.15475943  0.61301207  0.71027108    -0.13800
F1089       F  0.09219323  0.65246729  0.72999039    -0.16000
F1090       F  0.15791842  0.60907711  0.78676384    -0.14600
F1091       F  0.09485667  0.60824637  0.84214086    -0.14600
F1092       F  0.16327011  0.64033525  0.91620857    -0.16000
C1093       C  0.13537734  0.61478798  0.27213369     0.14000
C1094       C  0.12255429  0.62602256  0.29722378     0.01000
C1095       C  0.10778341  0.63915098  0.28239783     0.16000
C1096       C  0.10587138  0.64111897  0.24312060     0.25400
C1097       C  0.11880030  0.63003572  0.21783691    -0.40900
C1098       C  0.13352897  0.61677230  0.23274484     0.32400
C1099       C  0.12496285  0.62461785  0.33888606     0.01100
F1100       F  0.09554804  0.65044246  0.30608532    -0.13300
F1101       F  0.14566777  0.60530322  0.20920867    -0.13800
C1102       C  0.14361954  0.63144663  0.35576619     0.16000
C1103       C  0.14570649  0.63090527  0.39520741     0.25400
C1104       C  0.12916712  0.62337608  0.41867199    -0.40900
C1105       C  0.11039228  0.61665457  0.40161297     0.32400
C1106       C  0.10834408  0.61726599  0.36207388     0.14100
F1107       F  0.15965201  0.63911447  0.33402385    -0.13200
F1108       F  0.09421221  0.60903705  0.42305184    -0.13800
F1109       F  0.16374870  0.63826422  0.41047563    -0.16000
F1110       F  0.09022847  0.61041688  0.34628957    -0.14600
F1111       F  0.14945499  0.60168463  0.28583720    -0.14600
F1112       F  0.09174805  0.65429382  0.22981020    -0.16000
C1113       C  0.22976754  0.64039021  0.14522674     0.14000
C1114       C  0.24452974  0.62641435  0.13194577     0.01000
C1115       C  0.23803254  0.61144183  0.10699850     0.16000
C1116       C  0.21703592  0.61032920  0.09545695     0.25400
C1117       C  0.20199502  0.62430087  0.10858849    -0.40900
C1118       C  0.20863370  0.63934152  0.13379363     0.32400
C1119       C  0.26678638  0.62700173  0.14404120     0.01100
F1120       F  0.25221871  0.59799097  0.09329434    -0.13300
F1121       F  0.19477935  0.65309069  0.14741100    -0.13800
C1122       C  0.27488569  0.61107732  0.16414343     0.16000
C1123       C  0.29660417  0.60971323  0.17032700     0.25400
C1124       C  0.31070002  0.62431197  0.15642039    -0.40900
C1125       C  0.30233751  0.64092880  0.13827119     0.32400
C1126       C  0.28050169  0.64222540  0.13211664     0.14100
F1127       F  0.26176823  0.59639941  0.17647144    -0.13200
F1128       F  0.31535908  0.65522027  0.12406224    -0.13800
F1129       F  0.30387363  0.59371238  0.18886237    -0.16000
F1130       F  0.27294006  0.65766600  0.11229657    -0.14600
F1131       F  0.23577694  0.65488809  0.16963475    -0.14600
F1132       F  0.21162201  0.59559216  0.07110161    -0.16000
C1133       C  0.11337150  0.52877927  0.04899362     0.14000
C1134       C  0.12170062  0.51946476  0.01591374     0.01000
C1135       C  0.13091409  0.53140021  0.98742046     0.16000
C1136       C  0.13299689  0.55180462  0.99268566     0.25400
C1137       C  0.12542066  0.56108682  0.02614445    -0.40900
C1138       C  0.11503607  0.54945106  0.05389371     0.32400
C1139       C  0.12201189  0.49741060  0.01111096     0.01100
F1140       F  0.13803837  0.52323420  0.95421589    -0.13300
F1141       F  0.10741429  0.55793219  0.08642545    -0.13800
C1142       C  0.10330835  0.48586446  0.01300640     0.16000
C1143       C  0.10381458  0.46552428  0.00404100     0.25400
C1144       C  0.12298201  0.45636637  0.99248835    -0.40900
C1145       C  0.14175954  0.46780306  0.99240158     0.32400
C1146       C  0.14129362  0.48790190  0.00192063     0.14100
F1147       F  0.08435633  0.49444712  0.02149256    -0.13200
F1148       F  0.16073363  0.45957977  0.98256879    -0.13800
F1149       F  0.08534865  0.45509778  0.00441623    -0.16000
F1150       F  0.15983141  0.49824036  0.00149254    -0.14600
F1151       F  0.10444116  0.51781715  0.07721988    -0.14600
F1152       F  0.14238828  0.56262979  0.96468524    -0.16000
C1153       C  0.51859403  0.36451141  0.74802385     0.14000
C1154       C  0.50964064  0.37918340  0.77176217     0.01000
C1155       C  0.52318784  0.39295568  0.78911544     0.16000
C1156       C  0.54533422  0.39152789  0.78421677     0.25400
C1157       C  0.55438496  0.37618939  0.76198696    -0.40900
C1158       C  0.54066169  0.36299669  0.74321209     0.32400
C1159       C  0.48635313  0.37906790  0.78030797     0.01100
F1160       F  0.51502007  0.40721727  0.81234719    -0.13300
F1161       F  0.54857914  0.34852630  0.72015506    -0.13800
C1162       C  0.47691164  0.36240029  0.79714650     0.16000
C1163       C  0.45492489  0.36136674  0.80326888     0.25400
C1164       C  0.44168044  0.37701230  0.79262119    -0.40900
C1165       C  0.45124093  0.39410480  0.77719838     0.32400
C1166       C  0.47338576  0.39510299  0.77109620     0.14100
F1167       F  0.48906979  0.34696474  0.80757218    -0.13200
F1168       F  0.43911421  0.40943684  0.76621164    -0.13800
F1169       F  0.44659091  0.34487750  0.81951086    -0.16000
F1170       F  0.48205888  0.41138282  0.75468126    -0.14600
F1171       F  0.50588492  0.35143250  0.72976336    -0.14600
F1172       F  0.55790300  0.40457028  0.80283933    -0.16000
C1173       C  0.47002501  0.39087371  0.29709600     0.14000
C1174       C  0.48258583  0.37402795  0.29061063     0.01000
C1175       C  0.47247803  0.35552253  0.28828895     0.16000
C1176       C  0.45039023  0.35382135  0.29224367     0.25400
C1177       C  0.43761376  0.37068512  0.29796795    -0.40900
C1178       C  0.44780935  0.38925736  0.30061773     0.32400
C1179       C  0.50618162  0.37545926  0.28618528     0.01100
F1180       F  0.48399642  0.33899631  0.28094164    -0.13300
F1181       F  0.43635053  0.40592983  0.30675822    -0.13800
C1182       C  0.51926069  0.36367305  0.30846907     0.16000
C1183       C  0.54124364  0.36328029  0.30194417     0.25400
C1184       C  0.55080733  0.37506904  0.27364177    -0.40900
C1185       C  0.53791482  0.38756953  0.25242635     0.32400
C1186       C  0.51577561  0.38762672  0.25839062     0.14100
F1187       F  0.51069646  0.35241872  0.33663071    -0.13200
F1188       F  0.54660626  0.39895347  0.22457593    -0.13800
F1189       F  0.55324984  0.35140130  0.32358141    -0.16000
F1190       F  0.50365440  0.39890028  0.23582339    -0.14600
F1191       F  0.47928284  0.40891808  0.30048410    -0.14600
F1192       F  0.44156748  0.33557503  0.28917218    -0.16000
C1193       C  0.60764220  0.36730329  0.50381873     0.14000
C1194       C  0.62470919  0.37578330  0.52358490     0.01000
C1195       C  0.64072810  0.38568542  0.50284963     0.16000
C1196       C  0.63936360  0.38771545  0.46348327     0.25400
C1197       C  0.62195816  0.37979410  0.44369025    -0.40900
C1198       C  0.60633059  0.36918902  0.46424201     0.32400
C1199       C  0.62551337  0.37469068  0.56580758     0.01100
F1200       F  0.65783878  0.39334136  0.52072841    -0.13300
F1201       F  0.58929356  0.36141078  0.44637165    -0.13800
C1202       C  0.62461142  0.35638611  0.58405203     0.16000
C1203       C  0.62384695  0.35533422  0.62374427     0.25400
C1204       C  0.62399704  0.37267505  0.64648146    -0.40900
C1205       C  0.62602441  0.39099906  0.62795926     0.32400
C1206       C  0.62669422  0.39196415  0.58816436     0.14100
F1207       F  0.62455238  0.33939986  0.56332475    -0.13200
F1208       F  0.62696462  0.40811943  0.64815628    -0.13800
F1209       F  0.62281200  0.33718293  0.63966334    -0.16000
F1210       F  0.62778383  0.40991484  0.57144962    -0.14600
F1211       F  0.59177453  0.35782636  0.52307633    -0.14600
F1212       F  0.65527291  0.39737906  0.44464925    -0.16000
C1213       C  0.61592997  0.37059175  0.08209768     0.14000
C1214       C  0.62082354  0.38907460  0.06657290     0.01000
C1215       C  0.62386866  0.40526820  0.09115054     0.16000
C1216       C  0.62159850  0.40299953  0.13069767     0.25400
C1217       C  0.61627342  0.38443954  0.14630157    -0.40900
C1218       C  0.61375430  0.36824681  0.12132990     0.32400
C1219       C  0.62259190  0.39095922  0.02462931     0.01100
F1220       F  0.62861800  0.42332866  0.07684799    -0.13300
F1221       F  0.60967756  0.34988372  0.13479103    -0.13800
C1222       C  0.60488594  0.38672880  0.00221165     0.16000
C1223       C  0.60696933  0.38567639  0.96258330     0.25400
C1224       C  0.62673754  0.38910902  0.94459863    -0.40900
C1225       C  0.64429121  0.39416256  0.96687651     0.32400
C1226       C  0.64227006  0.39494875  0.00662243     0.14100
F1227       F  0.58553008  0.38361184  0.01887089    -0.13200
F1228       F  0.66352027  0.39782086  0.95013010    -0.13800
F1229       F  0.58953791  0.38187021  0.94166569    -0.16000
F1230       F  0.65965013  0.39895249  0.02755819    -0.14600
F1231       F  0.61359490  0.35460369  0.05903414    -0.14600
F1232       F  0.62427994  0.41902164  0.15354391    -0.16000
C1233       C  0.52153270  0.64400375  0.66386944     0.14000
C1234       C  0.51377653  0.63431014  0.69650341     0.01000
C1235       C  0.52788327  0.62391105  0.71908702     0.16000
C1236       C  0.54950706  0.62347799  0.70966576     0.25400
C1237       C  0.55743550  0.63370846  0.67775658    -0.40900
C1238       C  0.54326355  0.64381318  0.65468198     0.32400
C1239       C  0.49107267  0.63538153  0.70767123     0.01100
F1240       F  0.52082453  0.61493573  0.75130552    -0.13300
F1241       F  0.55048809  0.65353535  0.62340402    -0.13800
C1242       C  0.47878364  0.61811739  0.71043340     0.16000
C1243       C  0.45722358  0.61909553  0.72046145     0.25400
C1244       C  0.44745831  0.63746865  0.72774199    -0.40900
C1245       C  0.46020582  0.65471786  0.72652508     0.32400
C1246       C  0.48173817  0.65363322  0.71640626     0.14100
F1247       F  0.48756956  0.60029421  0.70228871    -0.13200
F1248       F  0.45186296  0.67279638  0.73409549    -0.13800
F1249       F  0.44591418  0.60201363  0.72228553    -0.16000
F1250       F  0.49352345  0.67046616  0.71512485    -0.14600
F1251       F  0.50805985  0.65372473  0.64108753    -0.14600
F1252       F  0.56287784  0.61411524  0.73319380    -0.16000
C1253       C  0.62818453  0.51714081  0.66824442     0.14000
C1254       C  0.62065632  0.51335801  0.70525171     0.01000
C1255       C  0.61360603  0.52933580  0.72796099     0.16000
C1256       C  0.61435036  0.54874175  0.71411032     0.25400
C1257       C  0.62250533  0.55267891  0.67732822    -0.40900
C1258       C  0.62913185  0.53645935  0.65444685     0.32400
C1259       C  0.62134304  0.49292758  0.72074018     0.01100
F1260       F  0.60597696  0.52611878  0.76371473    -0.13300
F1261       F  0.63657433  0.53916031  0.61839115    -0.13800
C1262       C  0.63403789  0.48890734  0.75194465     0.16000
C1263       C  0.63548082  0.46973961  0.76612715     0.25400
C1264       C  0.62426311  0.45385156  0.74937721    -0.40900
C1265       C  0.61134764  0.45797991  0.71815905     0.32400
C1266       C  0.61002842  0.47726889  0.70391326     0.14100
F1267       F  0.64553517  0.50357040  0.76830508    -0.13200
F1268       F  0.60001870  0.44340051  0.70120316    -0.13800
F1269       F  0.64789134  0.46690428  0.79661821    -0.16000
F1270       F  0.59749850  0.48070367  0.67382877    -0.14600
F1271       F  0.63531154  0.50212181  0.64569573    -0.14600
F1272       F  0.60740572  0.56364691  0.73703607    -0.16000
C1273       C  0.52342025  0.61658802  0.17842712     0.14000
C1274       C  0.51069380  0.63340170  0.17549062     0.01000
C1275       C  0.52035997  0.65164331  0.16727201     0.16000
C1276       C  0.54244642  0.65321421  0.16370561     0.25400
C1277       C  0.55540661  0.63657774  0.16896694    -0.40900
C1278       C  0.54550869  0.61811236  0.17531448     0.32400
C1279       C  0.48751961  0.63215643  0.18324516     0.01100
F1280       F  0.50847835  0.66819941  0.16447296    -0.13300
F1281       F  0.55710175  0.60147204  0.17942942    -0.13800
C1282       C  0.47979527  0.62443404  0.21788926     0.16000
C1283       C  0.45803241  0.62435413  0.22642573     0.25400
C1284       C  0.44376079  0.63249843  0.20096637    -0.40900
C1285       C  0.45134329  0.63992344  0.16613686     0.32400
C1286       C  0.47304894  0.63950485  0.15708466     0.14100
F1287       F  0.49340634  0.61784214  0.24426486    -0.13200
F1288       F  0.43767888  0.64755979  0.14091726    -0.13800
F1289       F  0.45101447  0.61739953  0.26051128    -0.16000
F1290       F  0.47995989  0.64637297  0.12288275    -0.14600
F1291       F  0.51443273  0.59864323  0.18488906    -0.14600
F1292       F  0.55103669  0.67121292  0.15620963    -0.16000
C1293       C  0.63799161  0.61942942  0.92438840     0.14000
C1294       C  0.62143137  0.62927932  0.90666183     0.01000
C1295       C  0.60593953  0.63902041  0.92925649     0.16000
C1296       C  0.60678006  0.63849273  0.96898121     0.25400
C1297       C  0.62297594  0.62799982  0.98666382    -0.40900
C1298       C  0.63873714  0.61873178  0.96388761     0.32400
C1299       C  0.62077217  0.62969727  0.86463039     0.01100
F1300       F  0.58964452  0.64854324  0.91285472    -0.13300
F1301       F  0.65508130  0.60908058  0.97989371    -0.13800
C1302       C  0.62101044  0.61206290  0.84314062     0.16000
C1303       C  0.62132677  0.61257507  0.80337277     0.25400
C1304       C  0.62103174  0.63073036  0.78447600    -0.40900
C1305       C  0.62087510  0.64833695  0.80614847     0.32400
C1306       C  0.62081673  0.64780463  0.84572333     0.14100
F1307       F  0.62057099  0.59432472  0.86072213    -0.13200
F1308       F  0.62127407  0.66620110  0.78899698    -0.13800
F1309       F  0.62131176  0.59534846  0.78347878    -0.16000
F1310       F  0.62135665  0.66505122  0.86559698    -0.14600
F1311       F  0.65366762  0.61065185  0.90336145    -0.14600
F1312       F  0.59127806  0.64749702  0.99004039    -0.16000
C1313       C  0.62297260  0.64489050  0.34727164     0.14000
C1314       C  0.61717456  0.62702081  0.36453469     0.01000
C1315       C  0.61212186  0.61064674  0.34147782     0.16000
C1316       C  0.61285254  0.61216752  0.30179099     0.25400
C1317       C  0.61843964  0.63013778  0.28459062    -0.40900
C1318       C  0.62349832  0.64646625  0.30773691     0.32400
C1319       C  0.61757838  0.62525752  0.40647151     0.01100
F1320       F  0.60616842  0.59327292  0.35746589    -0.13300
F1321       F  0.62947498  0.66389426  0.29197232    -0.13800
C1322       C  0.60507579  0.63755511  0.43024015     0.16000
C1323       C  0.60635048  0.63633783  0.46988873     0.25400
C1324       C  0.62009774  0.62269338  0.48644215    -0.40900
C1325       C  0.63259035  0.61044560  0.46231102     0.32400
C1326       C  0.63131940  0.61174466  0.42291147     0.14100
F1327       F  0.59144250  0.65058918  0.41500379    -0.13200
F1328       F  0.64661341  0.59749719  0.47671955    -0.13800
F1329       F  0.59386728  0.64824473  0.49195342    -0.16000
F1330       F  0.64407818  0.60015762  0.40068807    -0.14600
F1331       F  0.62870083  0.66070180  0.36873839    -0.14600
F1332       F  0.60740779  0.59631097  0.28026072    -0.16000
C1333       C  0.60321037  0.53190504  0.22700590     0.14000
C1334       C  0.61331019  0.51584105  0.20887157     0.01000
C1335       C  0.62465909  0.51900192  0.17484973     0.16000
C1336       C  0.62612289  0.53788032  0.15921343     0.25400
C1337       C  0.61610213  0.55426761  0.17720596    -0.40900
C1338       C  0.60444803  0.55090143  0.21127485     0.32400
C1339       C  0.61304264  0.49590889  0.22614698     0.01100
F1340       F  0.63480838  0.50377209  0.15709048    -0.13300
F1341       F  0.59411394  0.56589437  0.22935514    -0.13800
C1342       C  0.60006538  0.48075380  0.21185896     0.16000
C1343       C  0.60062501  0.46170906  0.22728834     0.25400
C1344       C  0.61431783  0.45740852  0.25731418    -0.40900
C1345       C  0.62751804  0.47273716  0.27106429     0.32400
C1346       C  0.62680730  0.49169836  0.25569247     0.14100
F1347       F  0.58683218  0.48442981  0.18288309    -0.13200
F1348       F  0.64163250  0.46936262  0.29884015    -0.13800
F1349       F  0.58764161  0.44757440  0.21293495    -0.16000
F1350       F  0.64003001  0.50591498  0.26906538    -0.14600
F1351       F  0.59210681  0.52915455  0.26000307    -0.14600
F1352       F  0.63773042  0.53999143  0.12655757    -0.16000
C1353       C  0.96890261  0.60816329  0.51662144     0.14000
C1354       C  0.98171584  0.62297404  0.50035763     0.01000
C1355       C  0.97227921  0.63814526  0.48004422     0.16000
C1356       C  0.95024157  0.63931171  0.47809466     0.25400
C1357       C  0.93712069  0.62529171  0.49664346    -0.40900
C1358       C  0.94674464  0.60926128  0.51477413     0.32400
C1359       C  0.00439920  0.62447201  0.50954458     0.01100
F1360       F  0.98447725  0.65240129  0.46354426    -0.13300
F1361       F  0.93481176  0.59528686  0.53269501    -0.13800
C1362       C  0.01913561  0.61028837  0.49693187     0.16000
C1363       C  0.04042791  0.61176713  0.50747430     0.25400
C1364       C  0.04719342  0.62744960  0.53106049    -0.40900
C1365       C  0.03226357  0.64183643  0.54278574     0.32400
C1366       C  0.01116316  0.64027886  0.53222632     0.14100
F1367       F  0.01289594  0.59506456  0.47441620    -0.13200
F1368       F  0.03786639  0.65742466  0.56496002    -0.13800
F1369       F  0.05423717  0.59769083  0.49506508    -0.16000
F1370       F  0.99708384  0.65403447  0.54509062    -0.14600
F1371       F  0.97779916  0.59339998  0.53653176    -0.14600
F1372       F  0.94181182  0.65454232  0.45882223    -0.16000
C1373       C  0.76560170  0.60978620  0.60114189     0.14000
C1374       C  0.75644688  0.62685801  0.58662582     0.01000
C1375       C  0.76960866  0.64170812  0.57135107     0.16000
C1376       C  0.79169976  0.63903088  0.56909739     0.25400
C1377       C  0.80079110  0.62135787  0.58185413    -0.40900
C1378       C  0.78747488  0.60701332  0.59873068     0.32400
C1379       C  0.73309004  0.62777486  0.58444523     0.01100
F1380       F  0.76101924  0.65839124  0.55737042    -0.13300
F1381       F  0.79561737  0.59030473  0.61344553    -0.13800
C1382       C  0.72107784  0.64077963  0.60747455     0.16000
C1383       C  0.69884658  0.63907974  0.60915990     0.25400
C1384       C  0.68856283  0.62419909  0.58814857    -0.40900
C1385       C  0.70063897  0.61186822  0.56394488     0.32400
C1386       C  0.72265316  0.61374166  0.56192631     0.14100
F1387       F  0.73090247  0.65434099  0.62971319    -0.13200
F1388       F  0.69108560  0.59782596  0.54240402    -0.13800
F1389       F  0.68752847  0.65113111  0.63291134    -0.16000
F1390       F  0.73396413  0.60135825  0.53881940    -0.14600
F1391       F  0.75317342  0.59556160  0.61719729    -0.14600
F1392       F  0.80404609  0.65338445  0.55330654    -0.16000
C1393       C  0.96631411  0.62041707  0.02628658     0.14000
C1394       C  0.97964459  0.63321840  0.00548420     0.01000
C1395       C  0.97062195  0.64757395  0.98235708     0.16000
C1396       C  0.94859583  0.64964159  0.98126827     0.25400
C1397       C  0.93522954  0.63708079  0.00269270    -0.40900
C1398       C  0.94428829  0.62218693  0.02459634     0.32400
C1399       C  0.00280780  0.63293175  0.01105537     0.01100
F1400       F  0.98320744  0.65980813  0.96130320    -0.13300
F1401       F  0.93185916  0.60998151  0.04598687    -0.13800
C1402       C  0.01459776  0.61556930  0.00531325     0.16000
C1403       C  0.03614194  0.61510072  0.01425854     0.25400
C1404       C  0.04615812  0.63204121  0.02904723    -0.40900
C1405       C  0.03438864  0.64957677  0.03336788     0.32400
C1406       C  0.01295319  0.64994638  0.02473276     0.14100
F1407       F  0.00513011  0.59898487  0.99173598    -0.13200
F1408       F  0.04345766  0.66640541  0.04676171    -0.13800
F1409       F  0.04686257  0.59787170  0.01008245    -0.16000
F1410       F  0.00183375  0.66676786  0.03151806    -0.14600
F1411       F  0.97462308  0.60688950  0.04987890    -0.14600
F1412       F  0.94035819  0.66387028  0.95914726    -0.16000
C1413       C  0.85929643  0.64983436  0.83161677     0.14000
C1414       C  0.86493048  0.63204629  0.81345669     0.01000
C1415       C  0.87180537  0.61619694  0.83538697     0.16000
C1416       C  0.87321039  0.61813993  0.87482715     0.25400
C1417       C  0.86776303  0.63603250  0.89318874    -0.40900
C1418       C  0.86074010  0.65185466  0.87105140     0.32400
C1419       C  0.86380369  0.63001960  0.77161946     0.01100
F1420       F  0.87766127  0.59893810  0.81844189    -0.13300
F1421       F  0.85484388  0.66920319  0.88757368    -0.13800
C1422       C  0.87602242  0.64233192  0.74773024     0.16000
C1423       C  0.87557507  0.63991416  0.70822300     0.25400
C1424       C  0.86291835  0.62502705  0.69181398    -0.40900
C1425       C  0.85030161  0.61301438  0.71602936     0.32400
C1426       C  0.85079277  0.61549822  0.75542073     0.14100
F1427       F  0.88894736  0.65631847  0.76276839    -0.13200
F1428       F  0.83728726  0.59887166  0.70173701    -0.13800
F1429       F  0.88806593  0.65176720  0.68623020    -0.16000
F1430       F  0.83839499  0.60376086  0.77784324    -0.14600
F1431       F  0.85202559  0.66516754  0.81115006    -0.14600
F1432       F  0.88053300  0.60266317  0.89483592    -0.16000
C1433       C  0.85329672  0.63770960  0.33484020     0.14000
C1434       C  0.86580165  0.62434843  0.31370625     0.01000
C1435       C  0.87858460  0.61081947  0.33273857     0.16000
C1436       C  0.87916605  0.61095712  0.37244305     0.25400
C1437       C  0.86700935  0.62467175  0.39349289    -0.40900
C1438       C  0.85399276  0.63795331  0.37438194     0.32400
C1439       C  0.86526046  0.62431732  0.27181909     0.01100
F1440       F  0.89106080  0.59797204  0.31275921    -0.13300
F1441       F  0.84206189  0.65132658  0.39413919    -0.13800
C1442       C  0.87139705  0.64109461  0.25099961     0.16000
C1443       C  0.87119593  0.64074054  0.21121725     0.25400
C1444       C  0.86490823  0.62352634  0.19169622    -0.40900
C1445       C  0.85804718  0.60700649  0.21304126     0.32400
C1446       C  0.85834146  0.60742186  0.25254448     0.14100
F1447       F  0.87797606  0.65769000  0.26922862    -0.13200
F1448       F  0.85050997  0.59045002  0.19586668    -0.13800
F1449       F  0.87746522  0.65709694  0.19196853    -0.16000
F1450       F  0.85144372  0.59136338  0.27212148    -0.14600
F1451       F  0.84035643  0.65048988  0.31713934    -0.14600
F1452       F  0.89252591  0.59855645  0.39014560    -0.16000
C1453       C  0.76554926  0.60860310  0.10972110     0.14000
C1454       C  0.75460667  0.62431793  0.09378065     0.01000
C1455       C  0.76603802  0.63970519  0.07632070     0.16000
C1456       C  0.78823421  0.63904482  0.07372866     0.25400
C1457       C  0.79927655  0.62292506  0.08867635    -0.40900
C1458       C  0.78762070  0.60789624  0.10734373     0.32400
C1459       C  0.73122353  0.62387436  0.09368769     0.01100
F1460       F  0.75564777  0.65497982  0.06055280    -0.13300
F1461       F  0.79750538  0.59244481  0.12355699    -0.13800
C1462       C  0.71927242  0.63814065  0.11368958     0.16000
C1463       C  0.69707139  0.63696905  0.11468401     0.25400
C1464       C  0.68665449  0.62139877  0.09595593    -0.40900
C1465       C  0.69871035  0.60724400  0.07573403     0.32400
C1466       C  0.72079893  0.60854040  0.07447516     0.14100
F1467       F  0.72913584  0.65280407  0.13314837    -0.13200
F1468       F  0.68907455  0.59234919  0.05651161    -0.13800
F1469       F  0.68581068  0.65058439  0.13504631    -0.16000
F1470       F  0.73208928  0.59485310  0.05430504    -0.14600
F1471       F  0.75476375  0.59381074  0.12750103    -0.14600
F1472       F  0.79877471  0.65384166  0.05553727    -0.16000
C1473       C  0.01405827  0.36904113  0.99642035     0.14000
C1474       C  0.00560640  0.38169558  0.96927543     0.01000
C1475       C  0.01955133  0.39383046  0.94805918     0.16000
C1476       C  0.04162533  0.39275091  0.95300137     0.25400
C1477       C  0.05008633  0.37941653  0.97908973    -0.40900
C1478       C  0.03599571  0.36784342  0.00116366     0.32400
C1479       C  0.98241388  0.38097868  0.96181904     0.01100
F1480       F  0.01188240  0.40600087  0.92128168    -0.13300
F1481       F  0.04348662  0.35524448  0.02739916    -0.13800
C1482       C  0.96932429  0.39749945  0.96798426     0.16000
C1483       C  0.94716024  0.39587603  0.96435375     0.25400
C1484       C  0.93769615  0.37763109  0.95457057    -0.40900
C1485       C  0.95109236  0.36141784  0.94673308     0.32400
C1486       C  0.97308938  0.36310144  0.95031278     0.14100
F1487       F  0.97790818  0.41498708  0.97903226    -0.13200
F1488       F  0.94294891  0.34378530  0.93543360    -0.13800
F1489       F  0.93497390  0.41195378  0.97190341    -0.16000
F1490       F  0.98539079  0.34709619  0.94272952    -0.14600
F1491       F  0.00097425  0.35757135  0.01811107    -0.14600
F1492       F  0.05474418  0.40390682  0.93077791    -0.16000
C1493       C  0.72172654  0.36693184  0.86483758     0.14000
C1494       C  0.73620663  0.37938278  0.84568236     0.01000
C1495       C  0.72874453  0.39215998  0.81782757     0.16000
C1496       C  0.70703673  0.39352191  0.81106091     0.25400
C1497       C  0.69233231  0.38195688  0.83175825    -0.40900
C1498       C  0.69992674  0.36813847  0.85780925     0.32400
C1499       C  0.75883891  0.38042127  0.85630875     0.01100
F1500       F  0.74253439  0.40379488  0.79792077    -0.13300
F1501       F  0.68616310  0.35684739  0.87850048    -0.13800
C1502       C  0.77240885  0.36420885  0.85109031     0.16000
C1503       C  0.79428592  0.36626824  0.85695288     0.25400
C1504       C  0.80292139  0.38463890  0.86811507    -0.40900
C1505       C  0.78896535  0.40048304  0.87545387     0.32400
C1506       C  0.76721422  0.39834984  0.86967831     0.14100
F1507       F  0.76463739  0.34665595  0.83859919    -0.13200
F1508       F  0.79633170  0.41819851  0.88795157    -0.13800
F1509       F  0.80706869  0.35053993  0.84989328    -0.16000
F1510       F  0.75425692  0.41398229  0.87659428    -0.14600
F1511       F  0.72853006  0.35450672  0.89196671    -0.14600
F1512       F  0.70033761  0.40651519  0.78483406    -0.16000
C1513       C  0.87983932  0.53088093  0.96072041     0.14000
C1514       C  0.87230171  0.51661818  0.98654374     0.01000
C1515       C  0.86419349  0.52269658  0.02205334     0.16000
C1516       C  0.86281427  0.54273929  0.03113154     0.25400
C1517       C  0.86961831  0.55719113  0.00483902    -0.40900
C1518       C  0.87866225  0.55103012  0.96987261     0.32400
C1519       C  0.87096268  0.49558741  0.97516439     0.01100
F1520       F  0.85672766  0.50921734  0.04737795    -0.13300
F1521       F  0.88553540  0.56444958  0.94395762    -0.13800
C1522       C  0.88285436  0.48111204  0.99330863     0.16000
C1523       C  0.88125873  0.46123564  0.98216804     0.25400
C1524       C  0.86755366  0.45547579  0.95279496    -0.40900
C1525       C  0.85515989  0.47014340  0.93567543     0.32400
C1526       C  0.85693090  0.48990117  0.94672926     0.14100
F1527       F  0.89624494  0.48628673  0.02144742    -0.13200
F1528       F  0.84130045  0.46554061  0.90791918    -0.13800
F1529       F  0.89325444  0.44773407  0.00000931    -0.16000
F1530       F  0.84463472  0.50356484  0.92994824    -0.14600
F1531       F  0.88794187  0.52524848  0.92631009    -0.14600
F1532       F  0.85462222  0.54796822  0.06574141    -0.16000
C1533       C  0.02700866  0.39033183  0.45411128     0.14000
C1534       C  0.01441720  0.37426527  0.46613410     0.01000
C1535       C  0.02415332  0.35800078  0.48273343     0.16000
C1536       C  0.04613200  0.35752522  0.48641959     0.25400
C1537       C  0.05885730  0.37346837  0.47408292    -0.40900
C1538       C  0.04907903  0.39000529  0.45829250     0.32400
C1539       C  0.99132150  0.37381310  0.45934345     0.01100
F1540       F  0.01231246  0.34251094  0.49543651    -0.13300
F1541       F  0.06091877  0.40547922  0.44555429    -0.13800
C1542       C  0.98266745  0.35844117  0.43760280     0.16000
C1543       C  0.96105857  0.35802583  0.42997657     0.25400
C1544       C  0.94755351  0.37325831  0.44335460    -0.40900
C1545       C  0.95616685  0.38833554  0.46630294     0.32400
C1546       C  0.97787875  0.38857993  0.47418782     0.14100
F1547       F  0.99531065  0.34402861  0.42270946    -0.13200
F1548       F  0.94374547  0.40303445  0.48064692    -0.13800
F1549       F  0.95354353  0.34272267  0.40894618    -0.16000
F1550       F  0.98579203  0.40321104  0.49642236    -0.14600
F1551       F  0.01801073  0.40599266  0.43703761    -0.14600
F1552       F  0.05493026  0.34152013  0.50267930    -0.16000
C1553       C  0.89086936  0.38688998  0.61559849     0.14000
C1554       C  0.87355246  0.38295527  0.64022457     0.01000
C1555       C  0.85349491  0.37932592  0.62501886     0.16000
C1556       C  0.85068622  0.37963223  0.58583202     0.25400
C1557       C  0.86795524  0.38359785  0.56081048    -0.40900
C1558       C  0.88814848  0.38713986  0.57620095     0.32400
C1559       C  0.87590372  0.38343905  0.68193499     0.01100
F1560       F  0.83642291  0.37596683  0.64833022    -0.13300
F1561       F  0.90514957  0.39140614  0.55330647    -0.13800
C1562       C  0.88065547  0.40124996  0.70048780     0.16000
C1563       C  0.88012502  0.40240019  0.74013899     0.25400
C1564       C  0.87476753  0.38568546  0.76214247    -0.40900
C1565       C  0.87104934  0.36760046  0.74332046     0.32400
C1566       C  0.87152901  0.36654505  0.70359205     0.14100
F1567       F  0.88475218  0.41781445  0.68014859    -0.13200
F1568       F  0.86587597  0.35113023  0.76316805    -0.13800
F1569       F  0.88445562  0.42005342  0.75687054    -0.16000
F1570       F  0.86712781  0.34910914  0.68613233    -0.14600
F1571       F  0.91040383  0.39051195  0.62976200    -0.14600
F1572       F  0.83098055  0.37591403  0.57249161    -0.16000
C1573       C  0.85211839  0.36233173  0.12066526     0.14000
C1574       C  0.86038663  0.37833529  0.14121237     0.01000
C1575       C  0.86902021  0.39450692  0.12140707     0.16000
C1576       C  0.87050210  0.39416073  0.08157704     0.25400
C1577       C  0.86349508  0.37752428  0.06100739    -0.40900
C1578       C  0.85360766  0.36192034  0.08099945     0.32400
C1579       C  0.86242879  0.37694752  0.18294680     0.01100
F1580       F  0.87722615  0.41008091  0.14075588    -0.13300
F1581       F  0.84571177  0.34602537  0.06215228    -0.13800
C1582       C  0.87693591  0.36354319  0.19773075     0.16000
C1583       C  0.87975556  0.36233523  0.23685806     0.25400
C1584       C  0.86786441  0.37431375  0.26217762    -0.40900
C1585       C  0.85294801  0.38746666  0.24744303     0.32400
C1586       C  0.85042391  0.38891859  0.20802938     0.14100
F1587       F  0.88870012  0.35181968  0.17405411    -0.13200
F1588       F  0.84136942  0.39936143  0.27107593    -0.13800
F1589       F  0.89397539  0.34921015  0.25005142    -0.16000
F1590       F  0.83628279  0.40195501  0.19433351    -0.14600
F1591       F  0.84323705  0.34675665  0.13919527    -0.14600
F1592       F  0.88007168  0.40949362  0.06339214    -0.16000
C1593       C  0.75373916  0.39567346  0.37567247     0.14000
C1594       C  0.74854410  0.38407793  0.34412594     0.01000
C1595       C  0.76398432  0.37206258  0.32666760     0.16000
C1596       C  0.78452197  0.37146848  0.34103719     0.25400
C1597       C  0.78975383  0.38280320  0.37339712    -0.40900
C1598       C  0.77406670  0.39501964  0.39034789     0.32400
C1599       C  0.72629709  0.38322453  0.33265072     0.01100
F1600       F  0.75904625  0.36072219  0.29611597    -0.13300
F1601       F  0.77805589  0.40592524  0.42194935    -0.13800
C1602       C  0.71758293  0.39871032  0.31214179     0.16000
C1603       C  0.69557835  0.40010760  0.30870730     0.25400
C1604       C  0.68202720  0.38610140  0.32621159    -0.40900
C1605       C  0.69103745  0.36995054  0.34485258     0.32400
C1606       C  0.71300871  0.36857130  0.34797643     0.14100
F1607       F  0.73034467  0.41296539  0.29708747    -0.13200
F1608       F  0.67863659  0.35623206  0.36253072    -0.13800
F1609       F  0.68754779  0.41548802  0.28930790    -0.16000
F1610       F  0.72128527  0.35369812  0.36845049    -0.14600
F1611       F  0.73876197  0.40710149  0.39320563    -0.14600
F1612       F  0.79914328  0.35971984  0.32339294    -0.16000
C1613       C  0.88797425  0.47236474  0.47705976     0.14000
C1614       C  0.87148246  0.48553754  0.46881174     0.01000
C1615       C  0.85346991  0.47802699  0.45059103     0.16000
C1616       C  0.85156241  0.45778916  0.44216936     0.25400
C1617       C  0.86770002  0.44438714  0.45153421    -0.40900
C1618       C  0.88620552  0.45207747  0.46824819     0.32400
C1619       C  0.87223511  0.50676246  0.48142352     0.01100
F1620       F  0.83712945  0.49018681  0.44265357    -0.13300
F1621       F  0.90209007  0.43982177  0.47816658    -0.13800
C1622       C  0.87184119  0.52228215  0.45504708     0.16000
C1623       C  0.87114728  0.54215572  0.46734434     0.25400
C1624       C  0.87037012  0.54695640  0.50637738    -0.40900
C1625       C  0.87100592  0.53135942  0.53263302     0.32400
C1626       C  0.87207257  0.51160446  0.52033368     0.14100
F1627       F  0.87200282  0.51816226  0.41727119    -0.13200
F1628       F  0.87068911  0.53523674  0.57052904    -0.13800
F1629       F  0.87035949  0.55663565  0.44107179    -0.16000
F1630       F  0.87222138  0.49710019  0.54664551    -0.14600
F1631       F  0.90565408  0.47910001  0.49446584    -0.14600
F1632       F  0.83357444  0.45123309  0.42550938    -0.16000
C1633       C  0.14430109  0.23455960  0.89962993     0.14000
C1634       C  0.12586601  0.24468540  0.88912755     0.01000
C1635       C  0.10817273  0.23353209  0.87747852     0.16000
C1636       C  0.10826063  0.21287934  0.87932158     0.25400
C1637       C  0.12622756  0.20281036  0.89182628    -0.40900
C1638       C  0.14450996  0.21379588  0.90073585     0.32400
C1639       C  0.12390294  0.26652201  0.89512713     0.01100
F1640       F  0.09034269  0.24272861  0.86603777    -0.13300
F1641       F  0.16190994  0.20452260  0.91380148    -0.13800
C1642       C  0.13815869  0.28011959  0.87822182     0.16000
C1643       C  0.13615757  0.30055713  0.88544211     0.25400
C1644       C  0.11982231  0.30784269  0.90980754    -0.40900
C1645       C  0.10553605  0.29402984  0.92629434     0.32400
C1646       C  0.10764681  0.27380933  0.91922099     0.14100
F1647       F  0.15394099  0.27363098  0.85449560    -0.13200
F1648       F  0.08954392  0.29990863  0.95019618    -0.13800
F1649       F  0.15032685  0.31311575  0.86881375    -0.16000
F1650       F  0.09403124  0.26118998  0.93716223    -0.14600
F1651       F  0.16150810  0.24476348  0.91178826    -0.14600
F1652       F  0.09038205  0.20269209  0.87049338    -0.16000
C1653       C  0.12568523  0.27936974  0.36741521     0.14000
C1654       C  0.13303572  0.26492915  0.39245934     0.01000
C1655       C  0.14096898  0.27114102  0.42764631     0.16000
C1656       C  0.14051173  0.29108612  0.43846759     0.25400
C1657       C  0.13234235  0.30548985  0.41421878    -0.40900
C1658       C  0.12552428  0.29947794  0.37804867     0.32400
C1659       C  0.13048877  0.24331137  0.38441127     0.01100
F1660       F  0.14803995  0.25768579  0.45267047    -0.13300
F1661       F  0.11743800  0.31287381  0.35395938    -0.13800
C1662       C  0.14799782  0.23046432  0.38530761     0.16000
C1663       C  0.14497982  0.20987259  0.38593164     0.25400
C1664       C  0.12435365  0.20171444  0.38621770    -0.40900
C1665       C  0.10700583  0.21453881  0.38230391     0.32400
C1666       C  0.11004708  0.23506273  0.38119068     0.14100
F1667       F  0.16799644  0.23791306  0.38742881    -0.13200
F1668       F  0.08691587  0.20721510  0.38114423    -0.13800
F1669       F  0.16212585  0.19803450  0.38945474    -0.16000
F1670       F  0.09279293  0.24693245  0.37987950    -0.14600
F1671       F  0.11813870  0.27393881  0.33304583    -0.14600
F1672       F  0.14763104  0.29626703  0.47329817    -0.16000
C1673       C  0.11036655  0.11571349  0.63237565     0.14000
C1674       C  0.11545959  0.13264576  0.65384329     0.01000
C1675       C  0.11855328  0.15063368  0.63499837     0.16000
C1676       C  0.11733245  0.15154713  0.59542121     0.25400
C1677       C  0.11322905  0.13438874  0.57363264    -0.40900
C1678       C  0.10942364  0.11652491  0.59271614     0.32400
C1679       C  0.11891414  0.13120627  0.69540856     0.01100
F1680       F  0.12367443  0.16722115  0.65474486    -0.13300
F1681       F  0.10452930  0.09984757  0.57308575    -0.13800
C1682       C  0.13370022  0.11765293  0.70893780     0.16000
C1683       C  0.13694659  0.11580544  0.74786789     0.25400
C1684       C  0.12570031  0.12769200  0.77431985    -0.40900
C1685       C  0.11136790  0.14173586  0.76076726     0.32400
C1686       C  0.10788974  0.14337180  0.72168703     0.14100
F1687       F  0.14528148  0.10631737  0.68427675    -0.13200
F1688       F  0.10005246  0.15331285  0.78539380    -0.13800
F1689       F  0.15137743  0.10250504  0.75964949    -0.16000
F1690       F  0.09326734  0.15641570  0.70963012    -0.14600
F1691       F  0.10629591  0.09831006  0.64991810    -0.14600
F1692       F  0.12100721  0.16917496  0.57842365    -0.16000
C1693       C  0.13076329  0.10795178  0.21210448     0.14000
C1694       C  0.12077615  0.12416187  0.19573364     0.01000
C1695       C  0.11188137  0.13883650  0.21965089     0.16000
C1696       C  0.11334706  0.13750356  0.25917097     0.25400
C1697       C  0.12349060  0.12132207  0.27555745    -0.40900
C1698       C  0.13200382  0.10646469  0.25150008     0.32400
C1699       C  0.12053218  0.12609772  0.15377101     0.01100
F1700       F  0.10154329  0.15438047  0.20473688    -0.13300
F1701       F  0.14217814  0.09070064  0.26597310    -0.13800
C1702       C  0.11267187  0.11075859  0.13070024     0.16000
C1703       C  0.11329407  0.11237448  0.09105715     0.25400
C1704       C  0.12148298  0.12950580  0.07373062    -0.40900
C1705       C  0.12927221  0.14486104  0.09698747     0.32400
C1706       C  0.12892703  0.14309863  0.13647031     0.14100
F1707       F  0.10391257  0.09437643  0.14661176    -0.13200
F1708       F  0.13754614  0.16157559  0.08153204    -0.13800
F1709       F  0.10511172  0.09750369  0.06975815    -0.16000
F1710       F  0.13724098  0.15790381  0.15782085    -0.14600
F1711       F  0.13999621  0.09380991  0.18986436    -0.14600
F1712       F  0.10442893  0.15182854  0.28137105    -0.16000
C1713       C  0.35934638  0.23737185  0.84240063     0.14000
C1714       C  0.36615760  0.24505978  0.87723621     0.01000
C1715       C  0.37331399  0.23197748  0.90499701     0.16000
C1716       C  0.37424987  0.21155941  0.89741975     0.25400
C1717       C  0.36852162  0.20409383  0.86166239    -0.40900
C1718       C  0.36066645  0.21716578  0.83460111     0.32400
C1719       C  0.36796454  0.26681936  0.88202756     0.01100
F1720       F  0.38001559  0.23906299  0.93887245    -0.13300
F1721       F  0.35484771  0.21037391  0.79993508    -0.13800
C1722       C  0.34978450  0.27880055  0.88237124     0.16000
C1723       C  0.35170162  0.29937885  0.87901194     0.25400
C1724       C  0.37185396  0.30826487  0.87444969    -0.40900
C1725       C  0.39003330  0.29628584  0.87613622     0.32400
C1726       C  0.38809268  0.27581565  0.88014432     0.14100
F1727       F  0.33014987  0.27044332  0.88396417    -0.13200
F1728       F  0.40975749  0.30432005  0.87229371    -0.13800
F1729       F  0.33382340  0.31038396  0.87703835    -0.16000
F1730       F  0.40590036  0.26460513  0.87931041    -0.14600
F1731       F  0.35261025  0.24963935  0.81493615    -0.14600
F1732       F  0.38200930  0.19930682  0.92396843    -0.16000
C1733       C  0.22871981  0.10830275  0.86653015     0.14000
C1734       C  0.23886115  0.12542571  0.87952763     0.01000
C1735       C  0.22658309  0.14115420  0.89373473     0.16000
C1736       C  0.20432617  0.13968402  0.89530019     0.25400
C1737       C  0.19397771  0.12237064  0.88257212    -0.40900
C1738       C  0.20659351  0.10676941  0.86781534     0.32400
C1739       C  0.26232637  0.12626744  0.87951972     0.01100
F1740       F  0.23620451  0.15776095  0.90683757    -0.13300
F1741       F  0.19762276  0.08997874  0.85407512    -0.13800
C1742       C  0.27376746  0.13658523  0.85126617     0.16000
C1743       C  0.29603155  0.13569196  0.84945841     0.25400
C1744       C  0.30704043  0.12426201  0.87567337    -0.40900
C1745       C  0.29550353  0.11440539  0.90448807     0.32400
C1746       C  0.27336149  0.11540544  0.90636510     0.14100
F1747       F  0.26331694  0.14685232  0.82462113    -0.13200
F1748       F  0.30573166  0.10383610  0.93100682    -0.13800
F1749       F  0.30672677  0.14516323  0.82107786    -0.16000
F1750       F  0.26259915  0.10550032  0.93410423    -0.14600
F1751       F  0.24035212  0.09298351  0.85244700    -0.14600
F1752       F  0.19302480  0.15507158  0.90991006    -0.16000
C1753       C  0.36690351  0.27428149  0.40444885     0.14000
C1754       C  0.35762079  0.26125621  0.37806508     0.01000
C1755       C  0.34816884  0.26912671  0.34579214     0.16000
C1756       C  0.34958414  0.28933954  0.33838988     0.25400
C1757       C  0.36023764  0.30217111  0.36327358    -0.40900
C1758       C  0.36810090  0.29462973  0.39721155     0.32400
C1759       C  0.36075980  0.23953783  0.38058397     0.01100
F1760       F  0.33904152  0.25704233  0.31979761    -0.13300
F1761       F  0.37839539  0.30666124  0.42181430    -0.13800
C1762       C  0.34348100  0.22624470  0.38023847     0.16000
C1763       C  0.34694117  0.20584269  0.37635617     0.25400
C1764       C  0.36772507  0.19845174  0.37218658    -0.40900
C1765       C  0.38493957  0.21171348  0.37416859     0.32400
C1766       C  0.38149868  0.23197889  0.37847373     0.14100
F1767       F  0.32326195  0.23308366  0.38213720    -0.13200
F1768       F  0.40520077  0.20510094  0.37049182    -0.13800
F1769       F  0.32996754  0.19350416  0.37372628    -0.16000
F1770       F  0.39850036  0.24438677  0.37784335    -0.14600
F1771       F  0.37576700  0.26712253  0.43625524    -0.14600
F1772       F  0.34135550  0.29631342  0.30585035    -0.16000
C1773       C  0.38210887  0.13716186  0.53818519     0.14000
C1774       C  0.37821015  0.12051342  0.56085716     0.01000
C1775       C  0.37203647  0.10277959  0.54343345     0.16000
C1776       C  0.36925067  0.10175101  0.50424768     0.25400
C1777       C  0.37282001  0.11849213  0.48117318    -0.40900
C1778       C  0.37948386  0.13619015  0.49878136     0.32400
C1779       C  0.37968035  0.12177477  0.60281281     0.01100
F1780       F  0.36878269  0.08630225  0.56446787    -0.13300
F1781       F  0.38350245  0.15262302  0.47805113    -0.13800
C1782       C  0.36194088  0.11701037  0.62598131     0.16000
C1783       C  0.36296229  0.11868095  0.66549445     0.25400
C1784       C  0.38163788  0.12547316  0.68257672    -0.40900
C1785       C  0.39950208  0.12993443  0.65947930     0.32400
C1786       C  0.39858096  0.12794999  0.61994612     0.14100
F1787       F  0.34333228  0.11141819  0.61022820    -0.13200
F1788       F  0.41793070  0.13601808  0.67525210    -0.13800
F1789       F  0.34532788  0.11460797  0.68693553    -0.16000
F1790       F  0.41619339  0.13192101  0.59839037    -0.14600
F1791       F  0.38797121  0.15455531  0.55434863    -0.14600
F1792       F  0.36284108  0.08424592  0.48921855    -0.16000
C1793       C  0.35988847  0.11686463  0.12456517     0.14000
C1794       C  0.37278656  0.12966632  0.10275132     0.01000
C1795       C  0.38698879  0.14235704  0.12101635     0.16000
C1796       C  0.38811878  0.14254857  0.16052759     0.25400
C1797       C  0.37492322  0.13010438  0.18267484    -0.40900
C1798       C  0.36095546  0.11705600  0.16431536     0.32400
C1799       C  0.37275265  0.12886294  0.06080819     0.01100
F1800       F  0.40020158  0.15422207  0.10040667    -0.13300
F1801       F  0.34797040  0.10492605  0.18479846    -0.13800
C1802       C  0.36544025  0.14483149  0.03955861     0.16000
C1803       C  0.36623223  0.14408326  0.99968952     0.25400
C1804       C  0.37448198  0.12735589  0.98063709    -0.40900
C1805       C  0.38226824  0.11166386  0.00232469     0.32400
C1806       C  0.38128799  0.11239512  0.04188935     0.14100
F1807       F  0.35710641  0.16091762  0.05748848    -0.13200
F1808       F  0.39093351  0.09549764  0.98517800    -0.13800
F1809       F  0.35813687  0.15928288  0.97988395    -0.16000
F1810       F  0.38897150  0.09706406  0.06187443    -0.14600
F1811       F  0.34613381  0.10435540  0.10732730    -0.14600
F1812       F  0.40256547  0.15460725  0.17714376    -0.16000
C1813       C  0.22382619  0.11438198  0.34848290     0.14000
C1814       C  0.23519679  0.12550106  0.37503571     0.01000
C1815       C  0.22406064  0.13642486  0.40304222     0.16000
C1816       C  0.20179717  0.13538281  0.40558148     0.25400
C1817       C  0.19049445  0.12324115  0.38030683    -0.40900
C1818       C  0.20172318  0.11320386  0.35111600     0.32400
C1819       C  0.25859436  0.12381891  0.37550288     0.01100
F1820       F  0.23479450  0.14728357  0.42898624    -0.13300
F1821       F  0.19126483  0.10216738  0.32505436    -0.13800
C1822       C  0.27186973  0.13970879  0.36556135     0.16000
C1823       C  0.29399076  0.13735386  0.36410111     0.25400
C1824       C  0.30322834  0.11900106  0.37283005    -0.40900
C1825       C  0.28965229  0.10321840  0.38320854     0.32400
C1826       C  0.26765422  0.10565020  0.38446208     0.14100
F1827       F  0.26338592  0.15734590  0.35631582    -0.13200
F1828       F  0.29753719  0.08533963  0.39245087    -0.13800
F1829       F  0.30624339  0.15297729  0.35344870    -0.16000
F1830       F  0.25505588  0.09016219  0.39458333    -0.14600
F1831       F  0.23426434  0.10425643  0.32043545    -0.14600
F1832       F  0.19142743  0.14536049  0.43389134    -0.16000
C1833       C  0.36094702  0.77759583  0.62261924     0.14000
C1834       C  0.37990917  0.76739844  0.62916747     0.01000
C1835       C  0.39891285  0.77813509  0.63221443     0.16000
C1836       C  0.39877070  0.79872506  0.63203807     0.25400
C1837       C  0.37954831  0.80909992  0.62906079    -0.40900
C1838       C  0.36076076  0.79835557  0.62244606     0.32400
C1839       C  0.37970162  0.74610418  0.63874716     0.01100
F1840       F  0.41749984  0.76863380  0.63778824    -0.13300
F1841       F  0.34197126  0.80785259  0.61928675    -0.13800
C1842       C  0.37614566  0.73133918  0.61129578     0.16000
C1843       C  0.37704083  0.71127319  0.62110273     0.25400
C1844       C  0.38157966  0.70571736  0.65853167    -0.40900
C1845       C  0.38498786  0.72068669  0.68586545     0.32400
C1846       C  0.38398984  0.74056353  0.67607867     0.14100
F1847       F  0.37244364  0.73635686  0.57484077    -0.13200
F1848       F  0.38904224  0.71613868  0.72246740    -0.13800
F1849       F  0.37425845  0.69733736  0.59375052    -0.16000
F1850       F  0.38720394  0.75453947  0.70327003    -0.14600
F1851       F  0.34237990  0.76751483  0.61945470    -0.14600
F1852       F  0.41737737  0.80855771  0.63698090    -0.16000
C1853       C  0.35948509  0.99052871  0.71580706     0.14000
C1854       C  0.37261293  0.99443539  0.74670636     0.01000
C1855       C  0.38452627  0.97896184  0.76159846     0.16000
C1856       C  0.38362684  0.95997842  0.74541187     0.25400
C1857       C  0.37061741  0.95599619  0.71399091    -0.40900
C1858       C  0.35847872  0.97161881  0.69960410     0.32400
C1859       C  0.37379432  0.01471518  0.76307526     0.01100
F1860       F  0.39739319  0.98233141  0.79143317    -0.13300
F1861       F  0.34568450  0.96878455  0.66949495    -0.13800
C1862       C  0.36729614  0.01842981  0.80083892     0.16000
C1863       C  0.36716472  0.03772237  0.81545499     0.25400
C1864       C  0.37359184  0.05378372  0.79259353    -0.40900
C1865       C  0.38070941  0.04991155  0.75506821     0.32400
C1866       C  0.38070980  0.03059987  0.74048080     0.14100
F1867       F  0.36049350  0.00340766  0.82332745    -0.13200
F1868       F  0.38715154  0.06484016  0.73204250    -0.13800
F1869       F  0.36084479  0.04061731  0.85217539    -0.16000
F1870       F  0.38746446  0.02737768  0.70410691    -0.14600
F1871       F  0.34736476  0.00508125  0.70150417    -0.14600
F1872       F  0.39559743  0.94557445  0.76058362    -0.16000
C1873       C  0.39080820  0.77265593  0.12296066     0.14000
C1874       C  0.37089353  0.76339596  0.12720195     0.01000
C1875       C  0.35251135  0.77511993  0.12849578     0.16000
C1876       C  0.35411422  0.79579064  0.12861098     0.25400
C1877       C  0.37417104  0.80504194  0.12826286    -0.40900
C1878       C  0.39244368  0.79327910  0.12365780     0.32400
C1879       C  0.36965515  0.74204868  0.13652708     0.01100
F1880       F  0.33306181  0.76651558  0.13202427    -0.13300
F1881       F  0.41202076  0.80176767  0.12183341    -0.13800
C1882       C  0.36331116  0.73647508  0.17337676     0.16000
C1883       C  0.36429130  0.71676221  0.18448614     0.25400
C1884       C  0.37152070  0.70204224  0.15891011    -0.40900
C1885       C  0.37709688  0.70747825  0.12147508     0.32400
C1886       C  0.37637727  0.72737107  0.11050040     0.14100
F1887       F  0.35717105  0.75035037  0.19934943    -0.13200
F1888       F  0.38443040  0.69374864  0.09622869    -0.13800
F1889       F  0.35852151  0.71211635  0.22069830    -0.16000
F1890       F  0.38271442  0.73238044  0.07478874    -0.14600
F1891       F  0.40882111  0.76173887  0.12135757    -0.14600
F1892       F  0.33616302  0.80666995  0.13265278    -0.16000
C1893       C  0.38101782  0.86549353  0.87861828     0.14000
C1894       C  0.36957648  0.88082318  0.89639082     0.01000
C1895       C  0.35976981  0.89501142  0.87372956     0.16000
C1896       C  0.36135429  0.89379464  0.83394939     0.25400
C1897       C  0.37256360  0.87821544  0.81620501    -0.40900
C1898       C  0.38243601  0.86414564  0.83909412     0.32400
C1899       C  0.36845540  0.88212504  0.93852810     0.01100
F1900       F  0.34831951  0.90983235  0.89013662    -0.13300
F1901       F  0.39405959  0.84927897  0.82322361    -0.13800
C1902       C  0.37590862  0.89905224  0.95736892     0.16000
C1903       C  0.37555507  0.90007727  0.99704913     0.25400
C1904       C  0.36789044  0.88409776  0.01884406    -0.40900
C1905       C  0.36068913  0.86703468  0.99996637     0.32400
C1906       C  0.36083395  0.86611944  0.96019377     0.14100
F1907       F  0.38410401  0.91442875  0.93731518    -0.13200
F1908       F  0.35291409  0.85146049  0.01995259    -0.13800
F1909       F  0.38326337  0.91657292  0.01416691    -0.16000
F1910       F  0.35319730  0.84968643  0.94277299    -0.14600
F1911       F  0.39133960  0.85202506  0.89962664    -0.14600
F1912       F  0.35146638  0.90751754  0.81288378    -0.16000
C1913       C  0.38484392  0.86280963  0.37991265     0.14000
C1914       C  0.37662048  0.88017761  0.39633202     0.01000
C1915       C  0.37044828  0.89553745  0.37254417     0.16000
C1916       C  0.37216859  0.89349934  0.33299979     0.25400
C1917       C  0.38001402  0.87590750  0.31621712    -0.40900
C1918       C  0.38657827  0.86067515  0.34039171     0.32400
C1919       C  0.37457367  0.88231434  0.43825905     0.01100
F1920       F  0.36223956  0.91241523  0.38765655    -0.13300
F1921       F  0.39494839  0.84370603  0.32599384    -0.13800
C1922       C  0.38509702  0.89775044  0.45718816     0.16000
C1923       C  0.38306246  0.89988284  0.49665828     0.25400
C1924       C  0.37083112  0.88638334  0.51798023    -0.40900
C1925       C  0.36030736  0.87093169  0.49915653     0.32400
C1926       C  0.36204884  0.86898504  0.45957431     0.14100
F1927       F  0.39772972  0.91051754  0.43748442    -0.13200
F1928       F  0.34780935  0.85811135  0.51901437    -0.13800
F1929       F  0.39353138  0.91483023  0.51422991    -0.16000
F1930       F  0.35115138  0.85433156  0.44193481    -0.14600
F1931       F  0.39153643  0.84796533  0.40226099    -0.14600
F1932       F  0.36574690  0.90870853  0.31130833    -0.16000
C1933       C  0.39223394  0.97871931  0.24560366     0.14000
C1934       C  0.37446236  0.99110780  0.24488337     0.01000
C1935       C  0.35551238  0.98392274  0.22957720     0.16000
C1936       C  0.35439150  0.96478755  0.21449049     0.25400
C1937       C  0.37222023  0.95227141  0.21471769    -0.40900
C1938       C  0.39112062  0.95942837  0.23090240     0.32400
C1939       C  0.37527551  0.01139997  0.26090700     0.01100
F1940       F  0.33806544  0.99558443  0.22895545    -0.13300
F1941       F  0.40869902  0.94795521  0.23178424    -0.13800
C1942       C  0.38602648  0.02662145  0.24152549     0.16000
C1943       C  0.38516397  0.04612544  0.25531671     0.25400
C1944       C  0.37347325  0.05073343  0.28884657    -0.40900
C1945       C  0.36347842  0.03512906  0.30890288     0.32400
C1946       C  0.36427093  0.01577752  0.29489530     0.14100
F1947       F  0.39681545  0.02266901  0.20858171    -0.13200
F1948       F  0.35290776  0.03847332  0.34232896    -0.13800
F1949       F  0.39535510  0.06048828  0.23532181    -0.16000
F1950       F  0.35415395  0.00121964  0.31452008    -0.14600
F1951       F  0.41061345  0.98527558  0.26086379    -0.14600
F1952       F  0.33569414  0.95847966  0.20006818    -0.16000
C1953       C  0.10434543  0.72676622  0.61086286     0.14000
C1954       C  0.12343336  0.73606795  0.59962746     0.01000
C1955       C  0.14122490  0.72415839  0.59137885     0.16000
C1956       C  0.13973177  0.70338099  0.59313513     0.25400
C1957       C  0.12033147  0.69394281  0.60322570    -0.40900
C1958       C  0.10276567  0.70614279  0.61268713     0.32400
C1959       C  0.12382397  0.75794551  0.59322143     0.01100
F1960       F  0.15988426  0.73261322  0.58016610    -0.13300
F1961       F  0.08375421  0.69823625  0.62353746    -0.13800
C1962       C  0.13659279  0.77096907  0.61444154     0.16000
C1963       C  0.13568234  0.79160305  0.60888321     0.25400
C1964       C  0.12194476  0.79967113  0.58192799    -0.40900
C1965       C  0.10954541  0.78634850  0.56036813     0.32400
C1966       C  0.11049463  0.76595637  0.56599624     0.14100
F1967       F  0.14954623  0.76375589  0.64123439    -0.13200
F1968       F  0.09645890  0.79291995  0.53314288    -0.13800
F1969       F  0.14801154  0.80362370  0.63027151    -0.16000
F1970       F  0.09835677  0.75387556  0.54432131    -0.14600
F1971       F  0.08695586  0.73776934  0.61978493    -0.14600
F1972       F  0.15723428  0.69256976  0.58416128    -0.16000
C1973       C  0.13136642  0.01847495  0.44789944     0.14000
C1974       C  0.12343753  0.01258306  0.48358098     0.01000
C1975       C  0.11539981  0.02713749  0.50874570     0.16000
C1976       C  0.11529943  0.04720083  0.49840132     0.25400
C1977       C  0.12368688  0.05321868  0.46287813    -0.40900
C1978       C  0.13162565  0.03846362  0.43773725     0.32400
C1979       C  0.12454933  0.99140492  0.49508347     0.01100
F1980       F  0.10773193  0.02189041  0.54352865    -0.13300
F1981       F  0.13955741  0.04331236  0.40288300    -0.13800
C1982       C  0.14016510  0.98528321  0.52015646     0.16000
C1983       C  0.14153650  0.96546060  0.53110615     0.25400
C1984       C  0.12713369  0.95104625  0.51744053    -0.40900
C1985       C  0.11168459  0.95725272  0.49161007     0.32400
C1986       C  0.11050644  0.97715038  0.48049479     0.14100
F1987       F  0.15435039  0.99857298  0.53383399    -0.13200
F1988       F  0.09752071  0.94415709  0.47724761    -0.13800
F1989       F  0.15708798  0.96051577  0.55529936    -0.16000
F1990       F  0.09541592  0.98256914  0.45577151    -0.14600
F1991       F  0.13933672  0.00484364  0.42305229    -0.14600
F1992       F  0.10757857  0.06075400  0.52361627    -0.16000
C1993       C  0.22999234  0.88955328  0.57449674     0.14000
C1994       C  0.23828366  0.87570479  0.59949589     0.01000
C1995       C  0.22465215  0.86154526  0.61592183     0.16000
C1996       C  0.20276316  0.86199435  0.60920839     0.25400
C1997       C  0.19423975  0.87670827  0.58610800    -0.40900
C1998       C  0.20817521  0.89009087  0.56790937     0.32400
C1999       C  0.26079403  0.87724551  0.61060513     0.01100
F2000       F  0.23236272  0.84808533  0.64028753    -0.13300
F2001       F  0.20053738  0.90414549  0.54470769    -0.13800
C2002       C  0.26728284  0.89287436  0.63418503     0.16000
C2003       C  0.28878820  0.89566085  0.64211088     0.25400
C2004       C  0.30424055  0.88283960  0.62652239    -0.40900
C2005       C  0.29755033  0.86663960  0.60424639     0.32400
C2006       C  0.27599851  0.86391060  0.59632991     0.14100
F2007       F  0.25273529  0.90566117  0.64900970    -0.13200
F2008       F  0.31197089  0.85410600  0.58819876    -0.13800
F2009       F  0.29451498  0.91100776  0.66478192    -0.16000
F2010       F  0.27007744  0.84878136  0.57330282    -0.14600
F2011       F  0.24299953  0.90303487  0.55753400    -0.14600
F2012       F  0.18973952  0.84910138  0.62776476    -0.16000
C2013       C  0.14090202  0.77012387  0.10443603     0.14000
C2014       C  0.12287004  0.75804927  0.09836952     0.01000
C2015       C  0.10399319  0.76742675  0.08772874     0.16000
C2016       C  0.10308280  0.78797240  0.08335141     0.25400
C2017       C  0.12114703  0.80007538  0.08856581    -0.40900
C2018       C  0.14007753  0.79081943  0.09943511     0.32400
C2019       C  0.12325843  0.73583933  0.10308048     0.01100
F2020       F  0.08634243  0.75659576  0.08025187    -0.13300
F2021       F  0.15804133  0.80167045  0.10388867    -0.13800
C2022       C  0.10709866  0.72628653  0.12438740     0.16000
C2023       C  0.10570338  0.70561610  0.12566509     0.25400
C2024       C  0.12069322  0.69350663  0.10626268    -0.40900
C2025       C  0.13767018  0.70300842  0.08680896     0.32400
C2026       C  0.13882182  0.72384960  0.08494357     0.14100
F2027       F  0.09245186  0.73702753  0.14431278    -0.13200
F2028       F  0.15278916  0.69217733  0.06833162    -0.13800
F2029       F  0.08949685  0.69749531  0.14634615    -0.16000
F2030       F  0.15471631  0.73223077  0.06395188    -0.14600
F2031       F  0.15935925  0.76194298  0.11549162    -0.14600
F2032       F  0.08428067  0.79600586  0.07362068    -0.16000
C2033       C  0.13368066  0.85679913  0.84361719     0.14000
C2034       C  0.12530088  0.87315289  0.82516465     0.01000
C2035       C  0.11651016  0.88868833  0.84696850     0.16000
C2036       C  0.11597335  0.88779582  0.88670354     0.25400
C2037       C  0.12413448  0.87127093  0.90526854    -0.40900
C2038       C  0.13316730  0.85586372  0.88322214     0.32400
C2039       C  0.12676894  0.87440620  0.78324826     0.01100
F2040       F  0.10805896  0.90455184  0.82967995    -0.13300
F2041       F  0.14184966  0.83996047  0.90002269    -0.13800
C2042       C  0.11667266  0.86038545  0.76004148     0.16000
C2043       C  0.11847807  0.86158181  0.72037789     0.25400
C2044       C  0.13039952  0.87689893  0.70324925    -0.40900
C2045       C  0.14084931  0.89063988  0.72687604     0.32400
C2046       C  0.13897004  0.88940542  0.76633366     0.14100
F2047       F  0.10468335  0.84577839  0.77582818    -0.13200
F2048       F  0.15320411  0.90522469  0.71191884    -0.13800
F2049       F  0.10806487  0.84808097  0.69888155    -0.16000
F2050       F  0.14943437  0.90272001  0.78818644    -0.14600
F2051       F  0.14277998  0.84187674  0.82321502    -0.14600
F2052       F  0.10680214  0.90275625  0.90688280    -0.16000
C2053       C  0.10593359  0.86334167  0.34295013     0.14000
C2054       C  0.11945018  0.87729920  0.32582695     0.01000
C2055       C  0.13119562  0.89023507  0.34876331     0.16000
C2056       C  0.12985267  0.88886757  0.38840753     0.25400
C2057       C  0.11667401  0.87452470  0.40571741    -0.40900
C2058       C  0.10448800  0.86197193  0.38244043     0.32400
C2059       C  0.12114777  0.87830364  0.28397373     0.01100
F2060       F  0.14442478  0.90381975  0.33269182    -0.13300
F2061       F  0.09094182  0.84843954  0.39784533    -0.13800
C2062       C  0.11409096  0.89505907  0.26507442     0.16000
C2063       C  0.11527815  0.89589539  0.22548683     0.25400
C2064       C  0.12357281  0.87992626  0.20398183    -0.40900
C2065       C  0.13056730  0.86310235  0.22303784     0.32400
C2066       C  0.12936632  0.86232096  0.26273586     0.14100
F2067       F  0.10572103  0.91050742  0.28500057    -0.13200
F2068       F  0.13931489  0.84774645  0.20339331    -0.13800
F2069       F  0.10802404  0.91228276  0.20818224    -0.16000
F2070       F  0.13667820  0.84613447  0.28058868    -0.14600
F2071       F  0.09394167  0.85112729  0.32129465    -0.14600
F2072       F  0.14203913  0.90107796  0.40969970    -0.16000
C2073       C  0.13127182  0.98565205  0.02924592     0.14000
C2074       C  0.12118788  0.99088545  0.99555233     0.01000
C2075       C  0.11219300  0.97561497  0.97345776     0.16000
C2076       C  0.11363278  0.95569712  0.98435205     0.25400
C2077       C  0.12406026  0.95042850  0.01781360    -0.40900
C2078       C  0.13261385  0.96582699  0.04027911     0.32400
C2079       C  0.12105335  0.01204030  0.98262740     0.01100
F2080       F  0.10182742  0.97998853  0.94124001    -0.13300
F2081       F  0.14227166  0.96179894  0.07339046    -0.13800
C2082       C  0.12903097  0.01698954  0.94631620     0.16000
C2083       C  0.12979976  0.03667970  0.93429413     0.25400
C2084       C  0.12283470  0.05228107  0.95833247    -0.40900
C2085       C  0.11455456  0.04733432  0.99460097     0.32400
C2086       C  0.11369991  0.02750612  0.00656984     0.14100
F2087       F  0.13675603  0.00273453  0.92257528    -0.13200
F2088       F  0.10766985  0.06168351  0.01891460    -0.13800
F2089       F  0.13731815  0.04037779  0.89864134    -0.16000
F2090       F  0.10550318  0.02342532  0.04159662    -0.14600
F2091       F  0.14048714  0.99973008  0.05115434    -0.14600
F2092       F  0.10511975  0.94157653  0.96165132    -0.16000
C2093       C  0.22219898  0.86250641  0.12784085     0.14000
C2094       C  0.23614479  0.87786798  0.11713079     0.01000
C2095       C  0.22821100  0.89368119  0.09625978     0.16000
C2096       C  0.20670145  0.89452893  0.08738090     0.25400
C2097       C  0.19250987  0.87949382  0.09893808    -0.40900
C2098       C  0.20057532  0.86328411  0.11878373     0.32400
C2099       C  0.25894892  0.87781358  0.12759323     0.01100
F2100       F  0.24137469  0.90844759  0.08450325    -0.13300
F2101       F  0.18733601  0.84877361  0.13140347    -0.13800
C2102       C  0.27263892  0.86275589  0.11462797     0.16000
C2103       C  0.29465242  0.86438830  0.11954805     0.25400
C2104       C  0.30337855  0.88121580  0.13729065    -0.40900
C2105       C  0.28947630  0.89559739  0.15248110     0.32400
C2106       C  0.26752519  0.89385651  0.14783811     0.14100
F2107       F  0.26485202  0.84706957  0.09505096    -0.13200
F2108       F  0.29717854  0.91160972  0.17122256    -0.13800
F2109       F  0.30749450  0.85016818  0.10455279    -0.16000
F2110       F  0.25461794  0.90817797  0.16226830    -0.14600
F2111       F  0.22931601  0.84719561  0.14852887    -0.14600
F2112       F  0.19970976  0.91024824  0.06766972    -0.16000
C2113       C  0.52407862  0.11233478  0.80097691     0.14000
C2114       C  0.51112234  0.12852901  0.79292334     0.01000
C2115       C  0.52048607  0.14574808  0.77841280     0.16000
C2116       C  0.54239166  0.14692733  0.77209191     0.25400
C2117       C  0.55564957  0.13086516  0.78038436    -0.40900
C2118       C  0.54619834  0.11348507  0.79486693     0.32400
C2119       C  0.48772514  0.12774484  0.79844764     0.01100
F2120       F  0.50825223  0.16142390  0.76962903    -0.13300
F2121       F  0.55833543  0.09780198  0.80395325    -0.13800
C2122       C  0.47766128  0.14043950  0.82488693     0.16000
C2123       C  0.45551066  0.14222730  0.82591713     0.25400
C2124       C  0.44299243  0.13118965  0.80074224    -0.40900
C2125       C  0.45306756  0.11794269  0.77517978     0.32400
C2126       C  0.47525495  0.11627901  0.77402155     0.14100
F2127       F  0.48940112  0.15153344  0.84900753    -0.13200
F2128       F  0.44155668  0.10759693  0.74954232    -0.13800
F2129       F  0.44630216  0.15492609  0.85125262    -0.16000
F2130       F  0.48465231  0.10437702  0.74747576    -0.14600
F2131       F  0.51534197  0.09557536  0.81537597    -0.14600
F2132       F  0.55050910  0.16381462  0.75709466    -0.16000
C2133       C  0.62550540  0.23104576  0.87074160     0.14000
C2134       C  0.63160466  0.24324924  0.84010828     0.01000
C2135       C  0.63885636  0.23430596  0.80614195     0.16000
C2136       C  0.63900284  0.21372074  0.80217091     0.25400
C2137       C  0.63217418  0.20145716  0.83216549    -0.40900
C2138       C  0.62590710  0.21029760  0.86688772     0.32400
C2139       C  0.62880947  0.26515843  0.84190073     0.01100
F2140       F  0.64449812  0.24555245  0.77582211    -0.13300
F2141       F  0.61879498  0.19894507  0.89608032    -0.13800
C2142       C  0.64638195  0.27801197  0.83843259     0.16000
C2143       C  0.64348454  0.29852231  0.83562368     0.25400
C2144       C  0.62291506  0.30658599  0.83524711    -0.40900
C2145       C  0.60537753  0.29373670  0.83953963     0.32400
C2146       C  0.60829993  0.27330614  0.84319525     0.14100
F2147       F  0.66636543  0.27061234  0.83653994    -0.13200
F2148       F  0.58531085  0.30094747  0.83935989    -0.13800
F2149       F  0.66076579  0.31035185  0.83059473    -0.16000
F2150       F  0.59099313  0.26132969  0.84586270    -0.14600
F2151       F  0.61849582  0.23925496  0.90394603    -0.14600
F2152       F  0.64478739  0.20567803  0.76805897    -0.16000
C2153       C  0.47266727  0.11360932  0.27294895     0.14000
C2154       C  0.48523062  0.12982350  0.28371946     0.01000
C2155       C  0.47539009  0.14662401  0.29941968     0.16000
C2156       C  0.45333363  0.14749114  0.30335502     0.25400
C2157       C  0.44055314  0.13147244  0.29183212    -0.40900
C2158       C  0.45048848  0.11438325  0.27704362     0.32400
C2159       C  0.50854684  0.12977667  0.27746341     0.01100
F2160       F  0.48721910  0.16232020  0.31082309    -0.13300
F2161       F  0.43875332  0.09880072  0.26485164    -0.13800
C2162       C  0.51811493  0.14423130  0.25442442     0.16000
C2163       C  0.54018105  0.14556407  0.25095076     0.25400
C2164       C  0.55323649  0.13239859  0.27044768    -0.40900
C2165       C  0.54358578  0.11737189  0.29232319     0.32400
C2166       C  0.52139962  0.11612598  0.29585504     0.14100
F2167       F  0.50600642  0.15721275  0.23541635    -0.13200
F2168       F  0.55556278  0.10442310  0.31163237    -0.13800
F2169       F  0.54873916  0.15977896  0.22831733    -0.16000
F2170       F  0.51247877  0.10212592  0.31852730    -0.14600
F2171       F  0.48182919  0.09736643  0.25700607    -0.14600
F2172       F  0.44451309  0.16411670  0.31844139    -0.16000
C2173       C  0.61818468  0.27956365  0.36910029     0.14000
C2174       C  0.62698523  0.26602443  0.34261913     0.01000
C2175       C  0.63553894  0.27321254  0.30824027     0.16000
C2176       C  0.63426215  0.29326121  0.29951032     0.25400
C2177       C  0.62456803  0.30673075  0.32507653    -0.40900
C2178       C  0.61720271  0.29980505  0.36057894     0.32400
C2179       C  0.62523780  0.24426781  0.34819424     0.01100
F2180       F  0.64397626  0.26057566  0.28193807    -0.13300
F2181       F  0.60783340  0.31237504  0.38595216    -0.13800
C2182       C  0.60513560  0.23514208  0.34841270     0.16000
C2183       C  0.60326945  0.21457722  0.34527980     0.25400
C2184       C  0.62146716  0.20261526  0.34239196    -0.40900
C2185       C  0.64158451  0.21162604  0.34511431     0.32400
C2186       C  0.64344884  0.23228081  0.34767860     0.14100
F2187       F  0.58725620  0.24624540  0.34874677    -0.13200
F2188       F  0.65948043  0.20060101  0.34207126    -0.13800
F2189       F  0.58359058  0.20637921  0.34344998    -0.16000
F2190       F  0.66307776  0.24066015  0.34777399    -0.14600
F2191       F  0.60995416  0.27307758  0.40268386    -0.14600
F2192       F  0.64203962  0.29946541  0.26537442    -0.16000
C2193       C  0.62045006  0.14077222  0.51196152     0.14000
C2194       C  0.62003776  0.12296587  0.53219846     0.01000
C2195       C  0.62170227  0.10508622  0.51213336     0.16000
C2196       C  0.62426963  0.10491951  0.47269393     0.25400
C2197       C  0.62507619  0.12273163  0.45209053    -0.40900
C2198       C  0.62290631  0.14068309  0.47227804     0.32400
C2199       C  0.61852369  0.12297147  0.57428277     0.01100
F2200       F  0.62054148  0.08765604  0.53078303    -0.13300
F2201       F  0.62361120  0.15817954  0.45385281    -0.13800
C2202       C  0.60134584  0.13204198  0.59344334     0.16000
C2203       C  0.60060496  0.13296703  0.63311617     0.25400
C2204       C  0.61690631  0.12462275  0.65439615    -0.40900
C2205       C  0.63362745  0.11479709  0.63527041     0.32400
C2206       C  0.63448634  0.11408147  0.59553946     0.14100
F2207       F  0.58525418  0.13998327  0.57370924    -0.13200
F2208       F  0.64976055  0.10687102  0.65491892    -0.13800
F2209       F  0.58391149  0.14204591  0.65081447    -0.16000
F2210       F  0.65138954  0.10539902  0.57775224    -0.14600
F2211       F  0.61901882  0.15830138  0.53075842    -0.14600
F2212       F  0.62556173  0.08713577  0.45476531    -0.16000
C2213       C  0.62687188  0.11282781  0.09644225     0.14000
C2214       C  0.61884029  0.12791124  0.07380541     0.01000
C2215       C  0.60979482  0.14457329  0.09138273     0.16000
C2216       C  0.60923707  0.14644398  0.13092833     0.25400
C2217       C  0.61786543  0.13165810  0.15394925    -0.40900
C2218       C  0.62638693  0.11464524  0.13615185     0.32400
C2219       C  0.62015671  0.12652273  0.03181415     0.01100
F2220       F  0.60124939  0.15899868  0.07011497    -0.13300
F2221       F  0.63475660  0.09997296  0.15699914    -0.13800
C2222       C  0.60906638  0.11166774  0.01242231     0.16000
C2223       C  0.61050955  0.11029830  0.97280296     0.25400
C2224       C  0.62301473  0.12384058  0.95181235    -0.40900
C2225       C  0.63384138  0.13889457  0.97124080     0.32400
C2226       C  0.63244499  0.14019482  0.01093244     0.14100
F2227       F  0.59666617  0.09860305  0.03187464    -0.13200
F2228       F  0.64656837  0.15175510  0.95197298    -0.13800
F2229       F  0.59951017  0.09579749  0.95487667    -0.16000
F2230       F  0.64361115  0.15445976  0.02916195    -0.14600
F2231       F  0.63571614  0.09656051  0.08000255    -0.14600
F2232       F  0.59986739  0.16266494  0.14658274    -0.16000
C2233       C  0.02045088  0.14500083  0.97736371     0.14000
C2234       C  0.01113777  0.13169589  0.95173290     0.01000
C2235       C  0.02424012  0.11850296  0.93113604     0.16000
C2236       C  0.04634638  0.11902195  0.93528790     0.25400
C2237       C  0.05573604  0.13285873  0.95995840    -0.40900
C2238       C  0.04247429  0.14564356  0.98134340     0.32400
C2239       C  0.98788546  0.13234412  0.94553131     0.01100
F2240       F  0.01571093  0.10570204  0.90575318    -0.13300
F2241       F  0.05081641  0.15881660  0.00626485    -0.13800
C2242       C  0.97849260  0.14996583  0.93389772     0.16000
C2243       C  0.95649166  0.15124639  0.93026568     0.25400
C2244       C  0.94326323  0.13485969  0.93806683    -0.40900
C2245       C  0.95279713  0.11695337  0.94844591     0.32400
C2246       C  0.97489638  0.11575284  0.95222837     0.14100
F2247       F  0.99070678  0.16605181  0.92605534    -0.13200
F2248       F  0.94072620  0.10081617  0.95655724    -0.13800
F2249       F  0.94817636  0.16862619  0.91902953    -0.16000
F2250       F  0.98352912  0.09860199  0.96393327    -0.14600
F2251       F  0.00815177  0.15749780  0.99852411    -0.14600
F2252       F  0.05859804  0.10666504  0.91374812    -0.16000
C2253       C  0.85117885  0.23156038  0.85372561     0.14000
C2254       C  0.86931300  0.24371267  0.85619302     0.01000
C2255       C  0.88933519  0.23480612  0.85805276     0.16000
C2256       C  0.89116035  0.21430847  0.86061515     0.25400
C2257       C  0.87296354  0.20209733  0.86128776    -0.40900
C2258       C  0.85299035  0.21087145  0.85603552     0.32400
C2259       C  0.86761523  0.26535574  0.86352288     0.01100
F2260       F  0.90714097  0.24614477  0.85977556    -0.13300
F2261       F  0.83508702  0.19962666  0.85637020    -0.13800
C2262       C  0.87239829  0.27257905  0.89980814     0.16000
C2263       C  0.87352203  0.29283376  0.90708422     0.25400
C2264       C  0.86983733  0.30659858  0.87823028    -0.40900
C2265       C  0.86394793  0.29942099  0.84218094     0.32400
C2266       C  0.86295032  0.27891435  0.83484801     0.14100
F2267       F  0.87634675  0.25985837  0.92833121    -0.13200
F2268       F  0.86003310  0.31216454  0.81371080    -0.13800
F2269       F  0.87817611  0.29897317  0.94276942    -0.16000
F2270       F  0.85819370  0.27232875  0.79952767    -0.14600
F2271       F  0.83162443  0.23976957  0.85191607    -0.14600
F2272       F  0.91079554  0.20644972  0.86421277    -0.16000
C2273       C  0.77327606  0.10935347  0.82677463     0.14000
C2274       C  0.76131889  0.12331552  0.84746254     0.01000
C2275       C  0.77174734  0.13654916  0.87179120     0.16000
C2276       C  0.79382637  0.13545253  0.87619048     0.25400
C2277       C  0.80576546  0.12095501  0.85651412    -0.40900
C2278       C  0.79523732  0.10815310  0.83120685     0.32400
C2279       C  0.73782119  0.12259733  0.84634917     0.01100
F2280       F  0.76041236  0.15002878  0.89234615    -0.13300
F2281       F  0.80623505  0.09454686  0.81031610    -0.13800
C2282       C  0.72693905  0.10715198  0.86455983     0.16000
C2283       C  0.70483179  0.10570261  0.86312445     0.25400
C2284       C  0.69299072  0.11967255  0.84307491    -0.40900
C2285       C  0.70400291  0.13535748  0.82513322     0.32400
C2286       C  0.72624430  0.13676039  0.82674424     0.14100
F2287       F  0.73782800  0.09346330  0.88409275    -0.13200
F2288       F  0.69335559  0.14910315  0.80534773    -0.13800
F2289       F  0.69504446  0.09075192  0.88213820    -0.16000
F2290       F  0.73652432  0.15169375  0.80852365    -0.14600
F2291       F  0.76356569  0.09668413  0.80252726    -0.14600
F2292       F  0.80336188  0.14802530  0.90080419    -0.16000
C2293       C  0.97495651  0.13861322  0.41128743     0.14000
C2294       C  0.98394034  0.12466776  0.43528943     0.01000
C2295       C  0.97064139  0.11155685  0.45542202     0.16000
C2296       C  0.94852881  0.11321754  0.45337342     0.25400
C2297       C  0.93956212  0.12817338  0.43149006    -0.40900
C2298       C  0.95294704  0.14039567  0.40945940     0.32400
C2299       C  0.00689342  0.12571162  0.44276640     0.01100
F2300       F  0.97904557  0.09807868  0.47898471    -0.13300
F2301       F  0.94468528  0.15442098  0.38688382    -0.13800
C2302       C  0.01494132  0.14233131  0.46165668     0.16000
C2303       C  0.03670049  0.14445417  0.46694848     0.25400
C2304       C  0.05099808  0.12997185  0.45326052    -0.40900
C2305       C  0.04279316  0.11293010  0.43540487     0.32400
C2306       C  0.02084903  0.11082915  0.43026470     0.14100
F2307       F  0.00161278  0.15663978  0.47484893    -0.13200
F2308       F  0.05600187  0.09871737  0.42152274    -0.13800
F2309       F  0.04372655  0.16075960  0.48562686    -0.16000
F2310       F  0.01328207  0.09464387  0.41193565    -0.14600
F2311       F  0.98758660  0.15108174  0.39085789    -0.14600
F2312       F  0.93595570  0.10122961  0.47496305    -0.16000
C2313       C  0.88772184  0.27937849  0.37472507     0.14000
C2314       C  0.86794765  0.26976320  0.37243156     0.01000
C2315       C  0.84960301  0.28150499  0.37000124     0.16000
C2316       C  0.85106404  0.30236944  0.37077413     0.25400
C2317       C  0.87095777  0.31199069  0.37383251    -0.40900
C2318       C  0.88923373  0.30000376  0.37560987     0.32400
C2319       C  0.86694299  0.24764497  0.37583342     0.01100
F2320       F  0.83020892  0.27279006  0.36782616    -0.13300
F2321       F  0.90884825  0.30817630  0.37898217    -0.13800
C2322       C  0.87547246  0.23877014  0.40794734     0.16000
C2323       C  0.87707587  0.21824499  0.41053585     0.25400
C2324       C  0.87010794  0.20562873  0.38105207    -0.40900
C2325       C  0.86057953  0.21441057  0.34950285     0.32400
C2326       C  0.85909996  0.23521636  0.34685549     0.14100
F2327       F  0.88253172  0.25012270  0.43708570    -0.13200
F2328       F  0.85343336  0.20296641  0.32061942    -0.13800
F2329       F  0.88550212  0.21074729  0.44246861    -0.16000
F2330       F  0.85079896  0.24320684  0.31531044    -0.14600
F2331       F  0.90583806  0.26866876  0.37633160    -0.14600
F2332       F  0.83303324  0.31308950  0.36807942    -0.16000
C2333       C  0.85950717  0.11541448  0.60783373     0.14000
C2334       C  0.87455930  0.12541545  0.62988290     0.01000
C2335       C  0.89069270  0.13642154  0.61192308     0.16000
C2336       C  0.89150909  0.13789666  0.57248889     0.25400
C2337       C  0.87610429  0.12842314  0.55021801    -0.40900
C2338       C  0.86026152  0.11689667  0.56819764     0.32400
C2339       C  0.87373050  0.12428422  0.67167389     0.01100
F2340       F  0.90582103  0.14559287  0.63268182    -0.13300
F2341       F  0.84506027  0.10773198  0.54760933    -0.13800
C2342       C  0.87733532  0.10629819  0.68951257     0.16000
C2343       C  0.87727287  0.10523287  0.72904608     0.25400
C2344       C  0.87333060  0.12220972  0.75172479    -0.40900
C2345       C  0.86989320  0.14032309  0.73349245     0.32400
C2346       C  0.87016219  0.14131386  0.69382358     0.14100
F2347       F  0.88134692  0.08977927  0.66853038    -0.13200
F2348       F  0.86582388  0.15703078  0.75384158    -0.13800
F2349       F  0.88130551  0.08750549  0.74491977    -0.16000
F2350       F  0.86660075  0.15887252  0.67691809    -0.14600
F2351       F  0.84377527  0.10466840  0.62479448    -0.14600
F2352       F  0.90757870  0.14843696  0.55603532    -0.16000
C2353       C  0.88166580  0.14790209  0.19599746     0.14000
C2354       C  0.87686700  0.13187825  0.17198732     0.01000
C2355       C  0.86955211  0.11422870  0.18798401     0.16000
C2356       C  0.86662745  0.11258835  0.22718957     0.25400
C2357       C  0.87117900  0.12863087  0.25181949    -0.40900
C2358       C  0.87896082  0.14630216  0.23556583     0.32400
C2359       C  0.87802733  0.13365004  0.13007968     0.01100
F2360       F  0.86458498  0.09862005  0.16535658    -0.13300
F2361       F  0.88402437  0.16203994  0.25775591    -0.13800
C2362       C  0.89170951  0.12153868  0.10815369     0.16000
C2363       C  0.89116056  0.12184680  0.06840153     0.25400
C2364       C  0.87706603  0.13441364  0.05001901    -0.40900
C2365       C  0.86354493  0.14662964  0.07198314     0.32400
C2366       C  0.86394626  0.14616924  0.11166147     0.14100
F2367       F  0.90570211  0.10954204  0.12531438    -0.13200
F2368       F  0.84957290  0.15868807  0.05493587    -0.13800
F2369       F  0.90487253  0.11038030  0.04784885    -0.16000
F2370       F  0.85011518  0.15751056  0.13219161    -0.14600
F2371       F  0.88910704  0.16505969  0.18108467    -0.14600
F2372       F  0.85906456  0.09515908  0.24068383    -0.16000
C2373       C  0.72102469  0.14135756  0.37396082     0.14000
C2374       C  0.73556880  0.13113061  0.35048495     0.01000
C2375       C  0.72807286  0.11964919  0.32016126     0.16000
C2376       C  0.70622676  0.11765426  0.31440170     0.25400
C2377       C  0.69155099  0.12735450  0.33861599    -0.40900
C2378       C  0.69915999  0.13961678  0.36790237     0.32400
C2379       C  0.75845856  0.13108891  0.35898647     0.01100
F2380       F  0.74197090  0.10991081  0.29681935    -0.13300
F2381       F  0.68537684  0.14887644  0.39219496    -0.13800
C2382       C  0.76683026  0.11564522  0.38017189     0.16000
C2383       C  0.78878771  0.11390368  0.38418685     0.25400
C2384       C  0.80275910  0.12765161  0.36713142    -0.40900
C2385       C  0.79423040  0.14380957  0.34782947     0.32400
C2386       C  0.77221539  0.14544632  0.34366948     0.14100
F2387       F  0.75370692  0.10189710  0.39599329    -0.13200
F2388       F  0.80722778  0.15732428  0.33094458    -0.13800
F2389       F  0.79642499  0.09860454  0.40432115    -0.16000
F2390       F  0.76436488  0.16057343  0.32336567    -0.14600
F2391       F  0.72797478  0.15235242  0.40365194    -0.14600
F2392       F  0.69938489  0.10608086  0.28543986    -0.16000
C2393       C  0.88734902  0.77162026  0.58718910     0.14000
C2394       C  0.86759200  0.76211907  0.58345796     0.01000
C2395       C  0.84922108  0.77372913  0.58085113     0.16000
C2396       C  0.85080179  0.79446185  0.57987823     0.25400
C2397       C  0.87080823  0.80385520  0.58100968    -0.40900
C2398       C  0.88896199  0.79220764  0.58577814     0.32400
C2399       C  0.86692061  0.74029742  0.57762831     0.01100
F2400       F  0.82997035  0.76498128  0.57655352    -0.13300
F2401       F  0.90845436  0.80077110  0.58776805    -0.13800
C2402       C  0.85752981  0.72751078  0.60449476     0.16000
C2403       C  0.85895961  0.70686439  0.59968169     0.25400
C2404       C  0.86985060  0.69867282  0.56786124    -0.40900
C2405       C  0.87836508  0.71170533  0.54030990     0.32400
C2406       C  0.87692074  0.73213830  0.54520946     0.14100
F2407       F  0.84755783  0.73500974  0.63591933    -0.13200
F2408       F  0.88802309  0.70474326  0.50809170    -0.13800
F2409       F  0.85019470  0.69497102  0.62661650    -0.16000
F2410       F  0.88541507  0.74409317  0.51805723    -0.14600
F2411       F  0.90529546  0.76082045  0.59051367    -0.14600
F2412       F  0.83300882  0.80522757  0.57462505    -0.16000
C2413       C  0.97635301  0.86194006  0.50142453     0.14000
C2414       C  0.98534197  0.87830878  0.51991756     0.01000
C2415       C  0.97188049  0.89356156  0.53287922     0.16000
C2416       C  0.94973424  0.89205279  0.52869862     0.25400
C2417       C  0.94063361  0.87519751  0.51149309    -0.40900
C2418       C  0.95440149  0.86035486  0.49730989     0.32400
C2419       C  0.00867858  0.87873800  0.52631350     0.01100
F2420       F  0.98008942  0.90957421  0.55085888    -0.13300
F2421       F  0.94670905  0.84411733  0.47928436    -0.13800
C2422       C  0.02179361  0.89368757  0.51096570     0.16000
C2423       C  0.04404135  0.89221639  0.51240598     0.25400
C2424       C  0.05350202  0.87563230  0.52879056    -0.40900
C2425       C  0.04028621  0.86138442  0.54621929     0.32400
C2426       C  0.01818468  0.86298277  0.54516582     0.14100
F2427       F  0.01312461  0.90906758  0.49251373    -0.13200
F2428       F  0.04879432  0.84561325  0.56374953    -0.13800
F2429       F  0.05627247  0.90631128  0.49551127    -0.16000
F2430       F  0.00597523  0.84873815  0.56166879    -0.14600
F2431       F  0.98894754  0.84731168  0.48723847    -0.14600
F2432       F  0.93722827  0.90676191  0.54274144    -0.16000
C2433       C  0.85493678  0.01942152  0.44032083     0.14000
C2434       C  0.87203944  0.01334036  0.46239678     0.01000
C2435       C  0.88758704  0.02749473  0.47186764     0.16000
C2436       C  0.88605250  0.04716946  0.45968765     0.25400
C2437       C  0.86895324  0.05330035  0.43737172    -0.40900
C2438       C  0.85344418  0.03901617  0.42785980     0.32400
C2439       C  0.87318569  0.99249609  0.47656889     0.01100
F2440       F  0.90460284  0.02217331  0.49238122    -0.13300
F2441       F  0.83649588  0.04400059  0.40687500    -0.13800
C2442       C  0.87231095  0.97615646  0.45144317     0.16000
C2443       C  0.87227247  0.95667938  0.46522092     0.25400
C2444       C  0.87285254  0.95307335  0.50448051    -0.40900
C2445       C  0.87424514  0.96940264  0.52943395     0.32400
C2446       C  0.87446373  0.98878415  0.51570858     0.14100
F2447       F  0.87142291  0.97904782  0.41344148    -0.13200
F2448       F  0.87537198  0.96659596  0.56745762    -0.13800
F2449       F  0.87073280  0.94139039  0.44026773    -0.16000
F2450       F  0.87513741  0.00399295  0.54099774    -0.14600
F2451       F  0.83924781  0.00645206  0.43154402    -0.14600
F2452       F  0.90167674  0.06007950  0.46908059    -0.16000
C2453       C  0.88650449  0.77373042  0.08324783     0.14000
C2454       C  0.86790980  0.76625035  0.10082708     0.01000
C2455       C  0.85160223  0.77955046  0.11116332     0.16000
C2456       C  0.85333254  0.79962801  0.10180309     0.25400
C2457       C  0.87160803  0.80685759  0.08256730    -0.40900
C2458       C  0.88844768  0.79370974  0.07474868     0.32400
C2459       C  0.86497967  0.74443238  0.10365767     0.01100
F2460       F  0.83375354  0.77302942  0.12947260    -0.13300
F2461       F  0.90675963  0.79998260  0.05760131    -0.13800
C2462       C  0.88147309  0.73249329  0.11695105     0.16000
C2463       C  0.88172231  0.71222411  0.10885521     0.25400
C2464       C  0.86494974  0.70339930  0.08922933    -0.40900
C2465       C  0.84730533  0.71479619  0.08003113     0.32400
C2466       C  0.84738894  0.73519161  0.08674028     0.14100
F2467       F  0.89801980  0.74068102  0.13565607    -0.13200
F2468       F  0.83087180  0.70647533  0.06124624    -0.13800
F2469       F  0.89881083  0.70137911  0.11850714    -0.16000
F2470       F  0.83118555  0.74605404  0.07334551    -0.14600
F2471       F  0.90243965  0.76147833  0.07184630    -0.14600
F2472       F  0.83670029  0.81171368  0.10993244    -0.16000
C2473       C  0.97576394  0.89229492  0.00103871     0.14000
C2474       C  0.98693018  0.87636313  0.01605754     0.01000
C2475       C  0.97556336  0.85997138  0.02973941     0.16000
C2476       C  0.95343547  0.85919923  0.02759063     0.25400
C2477       C  0.94210544  0.87489002  0.01172425    -0.40900
C2478       C  0.95349483  0.89161251  0.99898011     0.32400
C2479       C  0.01047709  0.87585882  0.01486457     0.01100
F2480       F  0.98601161  0.84452435  0.04478954    -0.13300
F2481       F  0.94320233  0.90687155  0.98296085    -0.13800
C2482       C  0.02250084  0.88615443  0.04182333     0.16000
C2483       C  0.04471322  0.88423451  0.04196219     0.25400
C2484       C  0.05517163  0.87182633  0.01532561    -0.40900
C2485       C  0.04302675  0.86180827  0.98805659     0.32400
C2486       C  0.02093638  0.86384323  0.98783402     0.14100
F2487       F  0.01266376  0.89752216  0.06872747    -0.13200
F2488       F  0.05258872  0.85018094  0.96123908    -0.13800
F2489       F  0.05588371  0.89380779  0.06911043    -0.16000
F2490       F  0.00963248  0.85391534  0.96132535    -0.14600
F2491       F  0.98649543  0.90816722  0.98712287    -0.14600
F2492       F  0.94307533  0.84304671  0.04125516    -0.16000
C2493       C  0.84908741  0.89211374  0.75701898     0.14000
C2494       C  0.86492475  0.88092011  0.77393866     0.01000
C2495       C  0.87864528  0.86953625  0.75079307     0.16000
C2496       C  0.87682838  0.86955132  0.71130283     0.25400
C2497       C  0.86122412  0.88104625  0.69399344    -0.40900
C2498       C  0.84721505  0.89219573  0.71745191     0.32400
C2499       C  0.86676568  0.88038398  0.81579205     0.01100
F2500       F  0.89417814  0.85868183  0.76650869    -0.13300
F2501       F  0.83156622  0.90309857  0.70222204    -0.13800
C2502       C  0.86351923  0.86253324  0.83477265     0.16000
C2503       C  0.86625504  0.86139645  0.87386937     0.25400
C2504       C  0.87251221  0.87815474  0.89516176    -0.40900
C2505       C  0.87517089  0.89625371  0.87615730     0.32400
C2506       C  0.87232098  0.89732781  0.83676799     0.14100
F2507       F  0.85753465  0.84610573  0.81531056    -0.13200
F2508       F  0.88107317  0.91277235  0.89536242    -0.13800
F2509       F  0.86243593  0.84378774  0.89084245    -0.16000
F2510       F  0.87560442  0.91476900  0.81889346    -0.14600
F2511       F  0.83520853  0.90272446  0.77890251    -0.14600
F2512       F  0.89090202  0.85882590  0.69005034    -0.16000
C2513       C  0.88281019  0.86013428  0.33254811     0.14000
C2514       C  0.87143659  0.87550325  0.31615374     0.01000
C2515       C  0.86129970  0.88947024  0.34004585     0.16000
C2516       C  0.86278543  0.88827657  0.37959014     0.25400
C2517       C  0.87427979  0.87293535  0.39613199    -0.40900
C2518       C  0.88417506  0.85879959  0.37201900     0.32400
C2519       C  0.87098274  0.87751428  0.27419602     0.01100
F2520       F  0.84971519  0.90419232  0.32502096    -0.13300
F2521       F  0.89572097  0.84388958  0.38649612    -0.13800
C2522       C  0.86350103  0.86209501  0.25091944     0.16000
C2523       C  0.86317742  0.86423571  0.21134337     0.25400
C2524       C  0.87020093  0.88192488  0.19435085    -0.40900
C2525       C  0.87796880  0.89717613  0.21784038     0.32400
C2526       C  0.87840285  0.89495130  0.25718379     0.14100
F2527       F  0.85598678  0.84514594  0.26659432    -0.13200
F2528       F  0.88552490  0.91424890  0.20273067    -0.13800
F2529       F  0.85533556  0.84925456  0.18987362    -0.16000
F2530       F  0.88646008  0.90979896  0.27873036    -0.14600
F2531       F  0.89320152  0.84671051  0.31026562    -0.14600
F2532       F  0.85256304  0.90190509  0.40162802    -0.16000
C2533       C  0.89429626  0.03013379  0.98080596     0.14000
C2534       C  0.87811913  0.01626481  0.97421500     0.01000
C2535       C  0.86037115  0.02190934  0.95368754     0.16000
C2536       C  0.85882772  0.04103737  0.93943666     0.25400
C2537       C  0.87499883  0.05515701  0.94579393    -0.40900
C2538       C  0.89277026  0.04941819  0.96681168     0.32400
C2539       C  0.87932738  0.99583939  0.98872566     0.01100
F2540       F  0.84447126  0.00875433  0.94732303    -0.13300
F2541       F  0.90893387  0.06228341  0.97314028    -0.13800
C2542       C  0.86900590  0.99090576  0.02299378     0.16000
C2543       C  0.86763399  0.97122012  0.03451467     0.25400
C2544       C  0.87648216  0.95590303  0.01175872    -0.40900
C2545       C  0.88762692  0.96108161  0.97808749     0.32400
C2546       C  0.88895359  0.98086574  0.96669434     0.14100
F2547       F  0.85980534  0.00517904  0.04496078    -0.13200
F2548       F  0.89667171  0.94700584  0.95548403    -0.13800
F2549       F  0.85749576  0.96723630  0.06801252    -0.16000
F2550       F  0.89909023  0.98537899  0.93348323    -0.14600
F2551       F  0.91159515  0.02497010  0.00070585    -0.14600
F2552       F  0.84134597  0.04566120  0.91953368    -0.16000
C2553       C  0.64233942  0.73475764  0.60580512     0.14000
C2554       C  0.62861214  0.74230585  0.57857378     0.01000
C2555       C  0.61589758  0.72902413  0.55787689     0.16000
C2556       C  0.61594257  0.70876198  0.56604278     0.25400
C2557       C  0.62856993  0.70155648  0.59517709    -0.40900
C2558       C  0.64223281  0.71462076  0.61410700     0.32400
C2559       C  0.62543440  0.76404102  0.57643875     0.01100
F2560       F  0.60265818  0.73582791  0.53112450    -0.13300
F2561       F  0.65466823  0.70798564  0.64225599    -0.13800
C2562       C  0.64267319  0.77699187  0.56978207     0.16000
C2563       C  0.64042925  0.79738867  0.57611674     0.25400
C2564       C  0.62096011  0.80510391  0.58960060    -0.40900
C2565       C  0.60336006  0.79230471  0.59332488     0.32400
C2566       C  0.60555867  0.77202875  0.58677862     0.14100
F2567       F  0.66196701  0.76974672  0.55909922    -0.13200
F2568       F  0.58417675  0.79933430  0.60528491    -0.13800
F2569       F  0.65772026  0.80930226  0.57223188    -0.16000
F2570       F  0.58861448  0.76001275  0.59369267    -0.14600
F2571       F  0.65458698  0.74711148  0.62669772    -0.14600
F2572       F  0.60243082  0.69647117  0.54768326    -0.16000
C2573       C  0.52320529  0.89371457  0.69795561     0.14000
C2574       C  0.50956472  0.87924392  0.68306203     0.01000
C2575       C  0.51828011  0.86380066  0.66097889     0.16000
C2576       C  0.54023941  0.86234010  0.65525501     0.25400
C2577       C  0.55406734  0.87641309  0.67128275    -0.40900
C2578       C  0.54524229  0.89239719  0.69194974     0.32400
C2579       C  0.48637013  0.87956634  0.69176515     0.01100
F2580       F  0.50547173  0.84991932  0.64523630    -0.13300
F2581       F  0.55794955  0.90619058  0.70816997    -0.13800
C2582       C  0.47383420  0.89580529  0.68221941     0.16000
C2583       C  0.45171030  0.89526663  0.68805128     0.25400
C2584       C  0.44166506  0.87837121  0.70344493    -0.40900
C2585       C  0.45457532  0.86252213  0.71461749     0.32400
C2586       C  0.47655869  0.86315756  0.70881389     0.14100
F2587       F  0.48291909  0.91189072  0.66577550    -0.13200
F2588       F  0.44602990  0.84608698  0.73072127    -0.13800
F2589       F  0.44016918  0.91106307  0.67746355    -0.16000
F2590       F  0.48832495  0.84754250  0.71969731    -0.14600
F2591       F  0.51527824  0.90859511  0.71995542    -0.14600
F2592       F  0.54794449  0.84695428  0.63428885    -0.16000
C2593       C  0.63509039  0.98860753  0.67888812     0.14000
C2594       C  0.62315393  0.99220801  0.71224594     0.01000
C2595       C  0.61186050  0.97652388  0.72911250     0.16000
C2596       C  0.61235212  0.95753092  0.71270189     0.25400
C2597       C  0.62428457  0.95378495  0.67897986    -0.40900
C2598       C  0.63574915  0.96970085  0.66248179     0.32400
C2599       C  0.62306192  0.01226751  0.72980336     0.01100
F2600       F  0.60021257  0.97965788  0.76144814    -0.13300
F2601       F  0.64774355  0.96712068  0.63034415    -0.13800
C2602       C  0.61037006  0.02729604  0.71535585     0.16000
C2603       C  0.61098123  0.04644332  0.73099303     0.25400
C2604       C  0.62454252  0.05107585  0.76134456    -0.40900
C2605       C  0.63716157  0.03575864  0.77578090     0.32400
C2606       C  0.63635851  0.01664415  0.76019947     0.14100
F2607       F  0.59733051  0.02339475  0.68599775    -0.13200
F2608       F  0.65041138  0.03915492  0.80504225    -0.13800
F2609       F  0.59829377  0.06040582  0.71618013    -0.16000
F2610       F  0.64887762  0.00238471  0.77446942    -0.14600
F2611       F  0.64636414  0.00346136  0.66231518    -0.14600
F2612       F  0.60108030  0.94288185  0.72991572    -0.16000
C2613       C  0.72477750  0.89559920  0.59716164     0.14000
C2614       C  0.73330443  0.87814231  0.58180271     0.01000
C2615       C  0.71960444  0.86251972  0.57241453     0.16000
C2616       C  0.69752616  0.86468763  0.57686313     0.25400
C2617       C  0.68885766  0.88254040  0.59107125    -0.40900
C2618       C  0.70287320  0.89777547  0.60194547     0.32400
C2619       C  0.75653303  0.87681883  0.57509350     0.01100
F2620       F  0.72757437  0.84544579  0.55775497    -0.13300
F2621       F  0.69545111  0.91492223  0.61723664    -0.13800
C2622       C  0.76899483  0.86476418  0.59779418     0.16000
C2623       C  0.79121343  0.86611518  0.59565497     0.25400
C2624       C  0.80125721  0.87967589  0.57090481    -0.40900
C2625       C  0.78868918  0.89087738  0.54668213     0.32400
C2626       C  0.76653806  0.88942576  0.54874181     0.14100
F2627       F  0.75963087  0.85265888  0.62376830    -0.13200
F2628       F  0.79784924  0.90357265  0.52155707    -0.13800
F2629       F  0.80279829  0.85523324  0.61978813    -0.16000
F2630       F  0.75474718  0.90088439  0.52593971    -0.14600
F2631       F  0.73778815  0.91067022  0.60748009    -0.14600
F2632       F  0.68470987  0.84959377  0.56593537    -0.16000
C2633       C  0.60689182  0.77500535  0.09577674     0.14000
C2634       C  0.62614613  0.76689312  0.08235400     0.01000
C2635       C  0.64285700  0.77983785  0.07210493     0.16000
C2636       C  0.64063970  0.80041084  0.07680924     0.25400
C2637       C  0.62170435  0.80846658  0.09230661    -0.40900
C2638       C  0.60467817  0.79543024  0.10068470     0.32400
C2639       C  0.62917486  0.74500803  0.08319855     0.01100
F2640       F  0.66154824  0.77250009  0.05844372    -0.13300
F2641       F  0.58589698  0.80235963  0.11482284    -0.13800
C2642       C  0.61548931  0.73210827  0.06359147     0.16000
C2643       C  0.61574027  0.71167919  0.07039350     0.25400
C2644       C  0.62950717  0.70382192  0.09718358    -0.40900
C2645       C  0.64404427  0.71652541  0.11496745     0.32400
C2646       C  0.64399986  0.73686180  0.10786143     0.14100
F2647       F  0.60116742  0.73942383  0.03922546    -0.13200
F2648       F  0.65751594  0.70933970  0.14098429    -0.13800
F2649       F  0.60142585  0.69979146  0.05303180    -0.16000
F2650       F  0.65731112  0.74879905  0.12749239    -0.14600
F2651       F  0.59050544  0.76302205  0.10640078    -0.14600
F2652       F  0.65743858  0.81229403  0.06815748    -0.16000
C2653       C  0.52281273  0.87296800  0.21371468     0.14000
C2654       C  0.51170513  0.88270903  0.18538056     0.01000
C2655       C  0.52298304  0.89154195  0.15516180     0.16000
C2656       C  0.54514284  0.88997662  0.15257749     0.25400
C2657       C  0.55613931  0.87931813  0.17993503    -0.40900
C2658       C  0.54487116  0.87120875  0.21094840     0.32400
C2659       C  0.48833661  0.88138519  0.18525776     0.01100
F2660       F  0.51244207  0.90080958  0.12730546    -0.13300
F2661       F  0.55525930  0.86151530  0.23847686    -0.13800
C2662       C  0.47559108  0.89722984  0.19741322     0.16000
C2663       C  0.45345503  0.89496558  0.20016594     0.25400
C2664       C  0.44384759  0.87674129  0.19088538    -0.40900
C2665       C  0.45679784  0.86119508  0.17729653     0.32400
C2666       C  0.47878966  0.86352320  0.17463678     0.14100
F2667       F  0.48464030  0.91462778  0.20777054    -0.13200
F2668       F  0.44821123  0.84366466  0.16645156    -0.13800
F2669       F  0.44157409  0.91031306  0.21335185    -0.16000
F2670       F  0.49091064  0.84818963  0.16208934    -0.14600
F2671       F  0.51214987  0.86466148  0.24348182    -0.14600
F2672       F  0.55572241  0.89786553  0.12229850    -0.16000
C2673       C  0.60413810  0.87406223  0.84394761     0.14000
C2674       C  0.62230120  0.88230721  0.86022021     0.01000
C2675       C  0.63898938  0.88913781  0.83664095     0.16000
C2676       C  0.63763272  0.88742504  0.79712205     0.25400
C2677       C  0.61957346  0.87879035  0.78077124    -0.40900
C2678       C  0.60277398  0.87227327  0.80456466     0.32400
C2679       C  0.62346143  0.88404927  0.90188170     0.01100
F2680       F  0.65673315  0.89708409  0.85195400    -0.13300
F2681       F  0.58482866  0.86451657  0.78964464    -0.13800
C2682       C  0.62541514  0.86714565  0.92418835     0.16000
C2683       C  0.62545413  0.86870161  0.96383878     0.25400
C2684       C  0.62340047  0.88728268  0.98190102    -0.40900
C2685       C  0.62126561  0.90418573  0.95906632     0.32400
C2686       C  0.62146336  0.90254076  0.91951863     0.14100
F2687       F  0.62753181  0.84912988  0.90743079    -0.13200
F2688       F  0.61870585  0.92239220  0.97482930    -0.13800
F2689       F  0.62791434  0.85204040  0.98433502    -0.16000
F2690       F  0.61926276  0.91901183  0.89834345    -0.14600
F2691       F  0.58758470  0.86799402  0.86633497    -0.14600
F2692       F  0.65425579  0.89354134  0.77493846    -0.16000
C2693       C  0.62871584  0.86121062  0.34203816     0.14000
C2694       C  0.62457976  0.87910808  0.36089653     0.01000
C2695       C  0.62135470  0.89619662  0.33948493     0.16000
C2696       C  0.62176985  0.89530822  0.29976333     0.25400
C2697       C  0.62525635  0.87721248  0.28066748    -0.40900
C2698       C  0.62908515  0.86023152  0.30243172     0.32400
C2699       C  0.62433580  0.88007289  0.40289910     0.01100
F2700       F  0.61723630  0.91369438  0.35712606    -0.13300
F2701       F  0.63326001  0.84255618  0.28551348    -0.13800
C2702       C  0.63856637  0.89264264  0.42142936     0.16000
C2703       C  0.63844177  0.89387871  0.46093068     0.25400
C2704       C  0.62408276  0.88246414  0.48298528    -0.40900
C2705       C  0.61010885  0.86949138  0.46441802     0.32400
C2706       C  0.61019290  0.86836894  0.42463640     0.14100
F2707       F  0.65293737  0.90350798  0.40118424    -0.13200
F2708       F  0.59597718  0.85835290  0.48460805    -0.13800
F2709       F  0.65278163  0.90603904  0.47758112    -0.16000
F2710       F  0.59615181  0.85618548  0.40728685    -0.14600
F2711       F  0.63268599  0.84465761  0.36204721    -0.14600
F2712       F  0.61802955  0.91205354  0.28020403    -0.16000
C2713       C  0.63715609  0.99068319  0.18417837     0.14000
C2714       C  0.62145959  0.99510549  0.21179665     0.01000
C2715       C  0.60734314  0.98011579  0.22349275     0.16000
C2716       C  0.60868614  0.96109037  0.20745380     0.25400
C2717       C  0.62436037  0.95655353  0.17944602    -0.40900
C2718       C  0.63866458  0.97169367  0.16824503     0.32400
C2719       C  0.62021710  0.01529009  0.22877520     0.01100
F2720       F  0.59194775  0.98402566  0.25001962    -0.13300
F2721       F  0.65432647  0.96820368  0.14199012    -0.13800
C2722       C  0.61460493  0.03154318  0.20662040     0.16000
C2723       C  0.61481477  0.05074892  0.22198067     0.25400
C2724       C  0.62114583  0.05412487  0.25961593    -0.40900
C2725       C  0.62606628  0.03768961  0.28207832     0.32400
C2726       C  0.62550760  0.01851230  0.26685261     0.14100
F2727       F  0.60904790  0.02879318  0.16993046    -0.13200
F2728       F  0.63132018  0.04014931  0.31901407    -0.13800
F2729       F  0.60954274  0.06607290  0.19958742    -0.16000
F2730       F  0.63076802  0.00309073  0.28903493    -0.14600
F2731       F  0.65132302  0.00476631  0.17302106    -0.14600
F2732       F  0.59430891  0.94726686  0.21890631    -0.16000
C2733       C  0.76945715  0.89840603  0.10600220     0.14000
C2734       C  0.75918920  0.88553515  0.08085244     0.01000
C2735       C  0.77140649  0.87313500  0.05693855     0.16000
C2736       C  0.79367270  0.87388874  0.05779482     0.25400
C2737       C  0.80396269  0.88716456  0.08246276    -0.40900
C2738       C  0.79156498  0.89927494  0.10674659     0.32400
C2739       C  0.73574464  0.88591550  0.07910168     0.01100
F2740       F  0.76178963  0.86083435  0.03191270    -0.13300
F2741       F  0.80084728  0.91184760  0.13170019    -0.13800
C2742       C  0.72563340  0.90348153  0.06948737     0.16000
C2743       C  0.70359226  0.90502442  0.07225156     0.25400
C2744       C  0.69100783  0.88890968  0.08471572    -0.40900
C2745       C  0.70119984  0.87097413  0.09278095     0.32400
C2746       C  0.72339225  0.86953053  0.08998876     0.14100
F2747       F  0.73723859  0.91934352  0.05783790    -0.13200
F2748       F  0.68984278  0.85498976  0.10449438    -0.13800
F2749       F  0.69469990  0.92244598  0.06270770    -0.16000
F2750       F  0.73287948  0.85238546  0.09943310    -0.14600
F2751       F  0.75796456  0.91019791  0.12998875    -0.14600
F2752       F  0.80512025  0.86224627  0.03348643    -0.16000
loop_ 
_geom_bond_atom_site_label_1 
_geom_bond_atom_site_label_2 
_geom_bond_distance 
_geom_bond_site_symmetry_2 
_ccdc_geom_bond_type 
O1           Ni7   1.938       .  S
O1           C22   1.273       .  A
O2          Ni25   1.940       .  S
O2           C11   1.275       .  A
O3           Ni7   1.905       .  S
O3          Ni25   1.923       .  S
O3          Ni19   1.917       .  S
O3           H26   0.965       .  S
C4           O21   1.280       .  A
C4           O13   1.276       .  A
C4         C2697   1.487       .  S
O5          Ni24   1.925       .  S
O5           C11   1.270       .  A
O6          Ni24   1.908       .  S
O6            C8   1.268       .  A
Ni7          O10   1.919       .  S
Ni7          O12   1.899       .  S
C8           O18   1.268       .  A
C8         C2657   1.471       .  S
O9          Ni25   1.919       .  S
O9           C15   1.277       .  A
O10          C15   1.275       .  A
C11        C2637   1.501       .  S
O12          C14   1.270       .  A
O13         Ni24   1.914       .  S
C14          O20   1.276       .  A
C14        C2744   1.489       .  S
C15        C2684   1.489   1_554  S
H16          O17   0.967       .  S
O17         Ni25   1.910       .  S
O17         Ni19   1.907       .  S
O17         Ni24   1.906       .  S
O18         Ni19   1.920       .  S
Ni19         O23   1.920       .  S
Ni19         O21   1.928       .  S
O20         Ni25   1.935       .  S
C22          O23   1.270       .  A
C22        C2717   1.501       .  S
O27         Ni33   1.931       .  S
O27          C48   1.270       .  A
O28         Ni51   1.923       .  S
O28          C37   1.271       .  A
O29         Ni33   1.920       .  S
O29         Ni51   1.927       .  S
O29         Ni45   1.909       .  S
O29          H52   0.966       .  S
C30          O47   1.267       .  A
C30          O39   1.273       .  A
C30        C2677   1.476       .  S
O31         Ni50   1.925       .  S
O31          C37   1.270       .  A
O32         Ni50   1.896       .  S
O32          C34   1.268       .  A
Ni33         O36   1.913       .  S
Ni33         O38   1.901       .  S
C34          O44   1.278       .  A
C34        C2577   1.487       .  S
O35         Ni51   1.920       .  S
O35          C41   1.273       .  A
O36          C41   1.271       .  A
C37        C2564   1.485       .  S
O38          C40   1.269       .  A
O39         Ni50   1.932       .  S
C40          O46   1.274       .  A
C40        C2617   1.489       .  S
C41        C2704   1.483       .  S
H42          O43   0.967       .  S
O43         Ni51   1.920       .  S
O43         Ni45   1.920       .  S
O43         Ni50   1.920       .  S
O44         Ni45   1.949       .  S
Ni45         O49   1.921       .  S
Ni45         O47   1.903       .  S
O46         Ni51   1.936       .  S
C48          O49   1.269       .  A
C48        C2597   1.503       .  S
O53         Ni59   1.925       .  S
O53          C74   1.271       .  A
O54         Ni77   1.920       .  S
O54          C63   1.270       .  A
O55         Ni59   1.905       .  S
O55         Ni77   1.914       .  S
O55         Ni71   1.919       .  S
O55          H78   0.966       .  S
C56          O73   1.281       .  A
C56          O65   1.276       .  A
C56        C2504   1.492       .  S
O57         Ni76   1.926   1_554  S
O57          C63   1.271       .  A
O58         Ni76   1.903   1_554  S
O58          C60   1.267       .  A
Ni59         O62   1.920       .  S
Ni59         O64   1.906       .  S
C60          O70   1.273       .  A
C60        C2477   1.488       .  S
O61         Ni77   1.925       .  S
O61          C67   1.277       .  A
O62          C67   1.276       .  A
C63        C2457   1.491       .  S
O64          C66   1.269       .  A
O65         Ni76   1.917       .  S
C66          O72   1.271       .  A
C66        C2737   1.481       .  S
C67        C2524   1.487       .  S
H68          O69   0.966       .  S
O69         Ni77   1.910       .  S
O69         Ni71   1.913       .  S
O69         Ni76   1.899   1_554  S
O70         Ni71   1.939       .  S
Ni71         O75   1.926       .  S
Ni71         O73   1.933   1_554  S
O72         Ni77   1.929       .  S
C74          O75   1.273       .  A
C74        C2544   1.496       .  S
O79         Ni85   1.932       .  S
O79         C100   1.274       .  A
O80        Ni103   1.933       .  S
O80          C89   1.270       .  A
O81         Ni85   1.917       .  S
O81        Ni103   1.926       .  S
O81         Ni97   1.929       .  S
O81         H104   0.967       .  S
C82          O99   1.280       .  A
C82          O91   1.275       .  A
C82        C2517   1.489       .  S
O83        Ni102   1.926       .  S
O83          C89   1.267       .  A
O84        Ni102   1.903       .  S
O84          C86   1.268       .  A
Ni85         O88   1.938       .  S
Ni85         O90   1.908       .  S
C86          O96   1.275       .  A
C86        C2417   1.497       .  S
O87        Ni103   1.906       .  S
O87          C93   1.271       .  A
O88          C93   1.275       .  A
C89        C2397   1.488       .  S
O90          C92   1.271       .  A
O91        Ni102   1.916       .  S
C92          O98   1.275       .  A
C92        C2624   1.482       .  S
C93        C2497   1.489       .  S
H94          O95   0.966       .  S
O95        Ni103   1.906       .  S
O95         Ni97   1.914       .  S
O95        Ni102   1.911       .  S
O96         Ni97   1.943       .  S
Ni97        O101   1.930       .  S
Ni97         O99   1.931       .  S
O98        Ni103   1.943       .  S
C100        O101   1.275       .  A
C100       C2444   1.497       .  S
O105       Ni111   1.942       .  S
O105        C126   1.273       .  A
O106       Ni129   1.957       .  S
O106        C115   1.276       .  A
O107       Ni111   1.915       .  S
O107       Ni129   1.939       .  S
O107       Ni123   1.914       .  S
O107        H130   0.966       .  S
C108        O125   1.275       .  A
C108        O117   1.275       .  A
C108       C2337   1.477       .  S
O109       Ni128   1.916       .  S
O109        C115   1.265       .  A
O110       Ni128   1.898       .  S
O110        C112   1.266       .  A
Ni111       O114   1.919       .  S
Ni111       O116   1.908       .  S
C112        O122   1.269       .  A
C112       C2297   1.474       .  S
O113       Ni129   1.927       .  S
O113        C119   1.278       .  A
O114        C119   1.275       .  A
C115       C2324   1.508       .  S
O116        C118   1.270       .  A
O117       Ni128   1.919       .  S
C118        O124   1.273       .  A
C118       C2384   1.482       .  S
C119       C2357   1.497       .  S
H120        O121   0.963       .  S
O121       Ni129   1.917       .  S
O121       Ni123   1.924       .  S
O121       Ni128   1.915       .  S
O122       Ni123   1.928       .  S
Ni123       O127   1.928       .  S
Ni123       O125   1.915       .  S
O124       Ni129   1.931       .  S
C126        O127   1.270       .  A
C126       C2437   1.509       .  S
O131       Ni137   1.933       .  S
O131        C152   1.273       .  A
O132       Ni155   1.936       .  S
O132        C141   1.273       .  A
O133       Ni137   1.898       .  S
O133       Ni155   1.911       .  S
O133       Ni149   1.913       .  S
O133        H156   0.966       .  S
C134        O151   1.280   1_554  A
C134        O143   1.277   1_554  A
C134       C2364   1.477       .  S
O135       Ni154   1.927       .  S
O135        C141   1.271       .  A
O136       Ni154   1.909       .  S
O136        C138   1.269       .  A
Ni137       O140   1.916       .  S
Ni137       O142   1.907       .  S
C138        O148   1.272       .  A
C138       C2244   1.490       .  S
O139       Ni155   1.926       .  S
O139        C145   1.281       .  A
O140        C145   1.277       .  A
C141       C2257   1.494       .  S
O142        C144   1.270       .  A
O143       Ni154   1.922       .  S
C144        O150   1.275       .  A
C144       C2277   1.487       .  S
C145       C2344   1.488       .  S
H146        O147   0.967       .  S
O147       Ni155   1.916       .  S
O147       Ni149   1.911       .  S
O147       Ni154   1.901       .  S
O148       Ni149   1.930       .  S
Ni149       O153   1.921       .  S
Ni149       O151   1.928       .  S
O150       Ni155   1.936       .  S
C152        O153   1.272       .  A
C152       C2537   1.497       .  S
O157       Ni163   1.933       .  S
O157        C178   1.273       .  A
O158       Ni181   1.932       .  S
O158        C167   1.271       .  A
O159       Ni163   1.907       .  S
O159       Ni181   1.918       .  S
O159       Ni175   1.910       .  S
O159        H182   0.966       .  S
C160        O177   1.278       .  A
C160        O169   1.276       .  A
C160       C2217   1.491       .  S
O161       Ni180   1.928       .  S
O161        C167   1.268       .  A
O162       Ni180   1.902       .  S
O162        C164   1.268       .  A
Ni163       O166   1.925       .  S
Ni163       O168   1.911       .  S
C164        O174   1.272       .  A
C164       C2164   1.484       .  S
O165       Ni181   1.922       .  S
O165        C171   1.278       .  A
O166        C171   1.277       .  A
C167       C2184   1.489       .  S
O168        C170   1.269       .  A
O169       Ni180   1.919       .  S
C170        O176   1.272       .  A
C170       C2377   1.480       .  S
C171       C2197   1.491       .  S
H172        O173   0.967       .  S
O173       Ni181   1.920       .  S
O173       Ni175   1.918       .  S
O173       Ni180   1.914       .  S
O174       Ni175   1.929       .  S
Ni175       O179   1.920       .  S
Ni175       O177   1.927       .  S
O176       Ni181   1.934       .  S
C178        O179   1.271       .  A
C178       C2724   1.493       .  S
O183       Ni189   1.939       .  S
O183        C204   1.273       .  A
O184       Ni207   1.943       .  S
O184        C193   1.277       .  A
O185       Ni189   1.907       .  S
O185       Ni207   1.919       .  S
O185       Ni201   1.904       .  S
O185        H208   0.966       .  S
C186        O203   1.271       .  A
C186        O195   1.272       .  A
C186       C2204   1.478       .  S
O187       Ni206   1.918       .  S
O187        C193   1.268       .  A
O188       Ni206   1.894       .  S
O188        C190   1.267       .  A
Ni189       O192   1.916       .  S
Ni189       O194   1.910       .  S
C190        O200   1.277       .  A
C190       C2117   1.491       .  S
O191       Ni207   1.933       .  S
O191        C197   1.282       .  A
O192        C197   1.276       .  A
C193       C2137   1.489       .  S
O194        C196   1.271       .  A
O195       Ni206   1.923       .  S
C196        O202   1.274       .  A
C196       C2284   1.493       .  S
C197       C2224   1.480       .  S
H198        O199   0.966       .  S
O199       Ni207   1.925       .  S
O199       Ni201   1.923       .  S
O199       Ni206   1.915       .  S
O200       Ni201   1.950       .  S
Ni201       O205   1.922       .  S
Ni201       O203   1.912       .  S
O202       Ni207   1.934       .  S
C204        O205   1.270       .  A
C204       C2604   1.504       .  S
O209       Ni215   1.926       .  S
O209        C230   1.271       .  A
O210       Ni233   1.939       .  S
O210        C219   1.275       .  A
O211       Ni215   1.906       .  S
O211       Ni233   1.918       .  S
O211       Ni227   1.918       .  S
O211        H234   0.967       .  S
C212        O229   1.282       .  A
C212        O221   1.277       .  A
C212       C2064   1.481       .  S
O213       Ni232   1.932       .  S
O213        C219   1.272       .  A
O214       Ni232   1.906       .  S
O214        C216   1.270       .  A
Ni215       O218   1.915   1_554  S
Ni215       O220   1.913       .  S
C216        O226   1.277       .  A
C216       C2097   1.489       .  S
O217       Ni233   1.931   1_556  S
O217        C223   1.281       .  A
O218        C223   1.276       .  A
C219       C2077   1.508       .  S
O220        C222   1.270       .  A
O221       Ni232   1.916       .  S
C222        O228   1.272       .  A
C222       C2484   1.485       .  S
C223       C2037   1.483       .  S
H224        O225   0.966       .  S
O225       Ni233   1.914       .  S
O225       Ni227   1.923       .  S
O225       Ni232   1.899       .  S
O226       Ni227   1.943       .  S
Ni227       O231   1.956       .  S
Ni227       O229   1.928       .  S
O228       Ni233   1.932       .  S
C230        O231   1.279       .  A
C230       C2017   1.510       .  S
O235       Ni241   1.922       .  S
O235        C256   1.268       .  A
O236       Ni259   1.933       .  S
O236        C245   1.273       .  A
O237       Ni241   1.909       .  S
O237       Ni259   1.921       .  S
O237       Ni253   1.916       .  S
O237        H260   0.968       .  S
C238        O255   1.278       .  A
C238        O247   1.277       .  A
C238       C2044   1.488       .  S
O239       Ni258   1.938       .  S
O239        C245   1.272       .  A
O240       Ni258   1.904       .  S
O240        C242   1.269       .  A
Ni241       O244   1.920       .  S
Ni241       O246   1.904       .  S
C242        O252   1.275       .  A
C242       C1997   1.482       .  S
O243       Ni259   1.922       .  S
O243        C249   1.278       .  A
O244        C249   1.276       .  A
C245       C1984   1.511       .  S
O246        C248   1.268       .  A
O247       Ni258   1.922       .  S
C248        O254   1.273       .  A
C248       C2424   1.488       .  S
C249       C2057   1.484       .  S
H250        O251   0.966       .  S
O251       Ni259   1.914       .  S
O251       Ni253   1.930       .  S
O251       Ni258   1.908       .  S
O252       Ni253   1.940       .  S
Ni253       O257   1.951       .  S
Ni253       O255   1.923       .  S
O254       Ni259   1.940       .  S
C256        O257   1.276       .  A
C256       C1964   1.510       .  S
O261       Ni267   1.930       .  S
O261        C282   1.270       .  A
O262       Ni285   1.913       .  S
O262        C271   1.268       .  A
O263       Ni267   1.909       .  S
O263       Ni285   1.910       .  S
O263       Ni279   1.917       .  S
O263        H286   0.966       .  S
C264        O281   1.280       .  A
C264        O273   1.278       .  A
C264       C1904   1.484       .  S
O265       Ni284   1.937       .  S
O265        C271   1.273       .  A
O266       Ni284   1.910       .  S
O266        C268   1.270       .  A
Ni267       O270   1.930       .  S
Ni267       O272   1.901       .  S
C268        O278   1.273       .  A
C268       C2104   1.488       .  S
O269       Ni285   1.918       .  S
O269        C275   1.276       .  A
O270        C275   1.278       .  A
C271       C1937   1.492       .  S
O272        C274   1.267       .  A
O273       Ni284   1.924       .  S
C274        O280   1.271       .  A
C274       C2664   1.484       .  S
C275       C1917   1.495       .  S
H276        O277   0.966       .  S
O277       Ni285   1.909       .  S
O277       Ni279   1.914       .  S
O277       Ni284   1.904       .  S
O278       Ni279   1.933       .  S
Ni279       O283   1.927       .  S
Ni279       O281   1.926       .  S
O280       Ni285   1.928       .  S
C282        O283   1.272       .  A
C282       C1877   1.486       .  S
O287       Ni293   1.916       .  S
O287        C308   1.266       .  A
O288       Ni311   1.910       .  S
O288        C297   1.271       .  A
O289       Ni293   1.895       .  S
O289       Ni311   1.901       .  S
O289       Ni305   1.914       .  S
O289        H312   0.966       .  S
C290        O307   1.277       .  A
C290        O299   1.280       .  A
C290       C1924   1.476       .  S
O291       Ni310   1.944       .  S
O291        C297   1.277       .  A
O292       Ni310   1.915       .  S
O292        C294   1.272       .  A
Ni293       O296   1.911       .  S
Ni293       O298   1.899       .  S
C294        O304   1.272       .  A
C294       C2004   1.485       .  S
O295       Ni311   1.938       .  S
O295        C301   1.282       .  A
O296        C301   1.276       .  A
C297       C1857   1.499       .  S
O298        C300   1.266       .  A
O299       Ni310   1.937       .  S
C300        O306   1.273       .  A
C300       C2584   1.495       .  S
C301       C1897   1.485       .  S
H302        O303   0.966       .  S
O303       Ni311   1.915       .  S
O303       Ni305   1.914       .  S
O303       Ni310   1.902       .  S
O304       Ni305   1.928       .  S
Ni305       O309   1.933       .  S
Ni305       O307   1.914       .  S
O306       Ni311   1.937       .  S
C308        O309   1.272       .  A
C308       C1837   1.485       .  S
O313       Ni319   1.925       .  S
O313        C334   1.268       .  A
O314       Ni337   1.925       .  S
O314        C323   1.272       .  A
O315       Ni319   1.906       .  S
O315       Ni337   1.915       .  S
O315       Ni331   1.918       .  S
O315        H338   0.965       .  S
C316        O333   1.281       .  A
C316        O325   1.276       .  A
C316       C1777   1.495       .  S
O317       Ni336   1.924       .  S
O317        C323   1.270       .  A
O318       Ni336   1.910       .  S
O318        C320   1.269       .  A
Ni319       O322   1.917       .  S
Ni319       O324   1.897       .  S
C320        O330   1.269       .  A
C320       C1824   1.492       .  S
O321       Ni337   1.926       .  S
O321        C327   1.278       .  A
O322        C327   1.276       .  A
C323       C1944   1.495       .  S
O324        C326   1.267       .  A
O325       Ni336   1.917       .  S
C326        O332   1.273       .  A
C326       C2157   1.483       .  S
C327       C1797   1.480       .  S
H328        O329   0.967       .  S
O329       Ni337   1.915       .  S
O329       Ni331   1.912       .  S
O329       Ni336   1.906       .  S
O330       Ni331   1.921       .  S
Ni331       O335   1.925       .  S
Ni331       O333   1.931       .  S
O332       Ni337   1.933       .  S
C334        O335   1.269       .  A
C334       C1764   1.484       .  S
O339       Ni345   1.925       .  S
O339        C360   1.273       .  A
O340       Ni363   1.915       .  S
O340        C349   1.267       .  A
O341       Ni345   1.915       .  S
O341       Ni363   1.912       .  S
O341       Ni357   1.929       .  S
O341        H364   0.971       .  S
C342        O359   1.280       .  A
C342        O351   1.272       .  A
C342       C1804   1.484       .  S
O343       Ni362   1.928       .  S
O343        C349   1.269       .  A
O344       Ni362   1.904       .  S
O344        C346   1.269       .  A
Ni345       O348   1.940       .  S
Ni345       O350   1.908       .  S
C346        O356   1.273       .  A
C346       C1744   1.478       .  S
O347       Ni363   1.903       .  S
O347        C353   1.267       .  A
O348        C353   1.274       .  A
C349       C1864   1.491       .  S
O350        C352   1.271       .  A
O351       Ni362   1.906       .  S
C352        O358   1.277       .  A
C352       C2124   1.483       .  S
C353       C1784   1.478       .  S
H354        O355   0.967       .  S
O355       Ni363   1.906       .  S
O355       Ni357   1.918       .  S
O355       Ni362   1.914       .  S
O356       Ni357   1.932       .  S
Ni357       O361   1.923       .  S
Ni357       O359   1.936       .  S
O358       Ni363   1.950       .  S
C360        O361   1.273       .  A
C360       C1717   1.482       .  S
O365       Ni371   1.934       .  S
O365        C386   1.271       .  A
O366       Ni389   1.947       .  S
O366        C375   1.278       .  A
O367       Ni371   1.905       .  S
O367       Ni389   1.920       .  S
O367       Ni383   1.914       .  S
O367        H390   0.966       .  S
C368        O385   1.282       .  A
C368        O377   1.277       .  A
C368       C1697   1.484       .  S
O369       Ni388   1.923       .  S
O369        C375   1.271       .  A
O370       Ni388   1.908       .  S
O370        C372   1.269       .  A
Ni371       O374   1.924       .  S
Ni371       O376   1.899       .  S
C372        O382   1.271       .  A
C372       C1817   1.480       .  S
O373       Ni389   1.927       .  S
O373        C379   1.282       .  A
O374        C379   1.278       .  A
C375       C1977   1.504       .  S
O376        C378   1.268       .  A
O377       Ni388   1.913       .  S
C378        O384   1.274       .  A
C378       C2304   1.485       .  S
C379       C1677   1.489       .  S
H380        O381   0.967       .  S
O381       Ni389   1.917       .  S
O381       Ni383   1.910       .  S
O381       Ni388   1.897       .  S
O382       Ni383   1.928       .  S
Ni383       O387   1.933       .  S
Ni383       O385   1.933       .  S
O384       Ni389   1.937       .  S
C386        O387   1.272       .  A
C386       C1664   1.494       .  S
O391       Ni397   1.928       .  S
O391        C412   1.268       .  A
O392       Ni415   1.938       .  S
O392        C401   1.276       .  A
O393       Ni397   1.909       .  S
O393       Ni415   1.919       .  S
O393       Ni409   1.912       .  S
O393        H416   0.966       .  S
C394        O411   1.277       .  A
C394        O403   1.277       .  A
C394       C1684   1.486       .  S
O395       Ni414   1.937       .  S
O395        C401   1.274       .  A
O396       Ni414   1.904       .  S
O396        C398   1.269       .  A
Ni397       O400   1.914   1_556  S
Ni397       O402   1.904       .  S
C398        O408   1.276       .  A
C398       C1737   1.494       .  S
O399       Ni415   1.932   1_554  S
O399        C405   1.281       .  A
O400        C405   1.275       .  A
C401       C2084   1.509       .  S
O402        C404   1.268       .  A
O403       Ni414   1.928       .  S
C404        O410   1.273       .  A
C404       C2237   1.485       .  S
C405       C1704   1.485       .  S
H406        O407   0.967       .  S
O407       Ni415   1.919       .  S
O407       Ni409   1.920       .  S
O407       Ni414   1.904       .  S
O408       Ni409   1.939       .  S
Ni409       O413   1.935       .  S
Ni409       O411   1.923       .  S
O410       Ni415   1.932       .  S
C412        O413   1.272       .  A
C412       C1637   1.486       .  S
O417       Ni423   1.923       .  S
O417        C438   1.270       .  A
O418       Ni441   1.900       .  S
O418        C427   1.268       .  A
O419       Ni423   1.897       .  S
O419       Ni441   1.899       .  S
O419       Ni435   1.916       .  S
O419        H442   0.967       .  S
C420        O437   1.278       .  A
C420        O429   1.279       .  A
C420       C1557   1.487       .  S
O421       Ni440   1.930       .  S
O421        C427   1.274       .  A
O422       Ni440   1.911       .  S
O422        C424   1.269       .  A
Ni423       O426   1.922       .  S
Ni423       O428   1.907       .  S
C424        O434   1.279       .  A
C424       C1617   1.504       .  S
O425       Ni441   1.928       .  S
O425        C431   1.279       .  A
O426        C431   1.278       .  A
C427       C1597   1.483       .  S
O428        C430   1.268       .  A
O429       Ni440   1.927       .  S
C430        O436   1.280       .  A
C430       C2317   1.511       .  S
C431       C1584   1.483       .  S
H432        O433   0.966       .  S
O433       Ni441   1.912       .  S
O433       Ni435   1.903       .  S
O433       Ni440   1.898       .  S
O434       Ni435   1.958       .  S
Ni435       O439   1.911       .  S
Ni435       O437   1.921       .  S
O436       Ni441   1.964       .  S
C438        O439   1.270       .  A
C438       C1544   1.486       .  S
O443       Ni449   1.922       .  S
O443        C464   1.270       .  A
O444       Ni467   1.919       .  S
O444        C453   1.270       .  A
O445       Ni449   1.900       .  S
O445       Ni467   1.911       .  S
O445       Ni461   1.921       .  S
O445        H468   0.970       .  S
C446        O463   1.280       .  A
C446        O455   1.277       .  A
C446       C1564   1.488       .  S
O447       Ni466   1.926       .  S
O447        C453   1.270       .  A
O448       Ni466   1.904       .  S
O448        C450   1.268       .  A
Ni449       O452   1.922   1_556  S
Ni449       O454   1.910       .  S
C450        O460   1.271       .  A
C450       C1504   1.488       .  S
O451       Ni467   1.930       .  S
O451        C457   1.279   1_556  A
O452        C457   1.277       .  A
C453       C1524   1.494       .  S
O454        C456   1.270       .  A
O455       Ni466   1.919       .  S
C456        O462   1.273       .  A
C456       C1484   1.495       .  S
C457       C1577   1.487       .  S
H458        O459   0.966       .  S
O459       Ni467   1.917       .  S
O459       Ni461   1.915       .  S
O459       Ni466   1.904       .  S
O460       Ni461   1.929       .  S
Ni461       O465   1.935       .  S
Ni461       O463   1.927       .  S
O462       Ni467   1.937       .  S
C464        O465   1.272       .  A
C464       C2264   1.495       .  S
O469       Ni475   1.939   1_554  S
O469        C490   1.274       .  A
O470       Ni493   1.927   1_556  S
O470        C479   1.270   1_556  A
O471       Ni475   1.905   1_554  S
O471       Ni493   1.909       .  S
O471       Ni487   1.920       .  S
O471        H494   0.966       .  S
C472        O489   1.283       .  A
C472        O481   1.275       .  A
C472       C1444   1.485       .  S
O473       Ni492   1.906       .  S
O473        C479   1.264       .  A
O474       Ni492   1.896       .  S
O474        C476   1.266       .  A
Ni475       O478   1.932       .  S
Ni475       O480   1.906   1_556  S
C476        O486   1.270       .  A
C476       C1457   1.481       .  S
O477       Ni493   1.914   1_556  S
O477        C483   1.277       .  A
O478        C483   1.279       .  A
C479       C1517   1.484       .  S
O480        C482   1.269       .  A
O481       Ni492   1.902       .  S
C482        O488   1.269       .  A
C482       C1397   1.474       .  S
C483       C1417   1.486       .  S
H484        O485   0.966       .  S
O485       Ni493   1.914       .  S
O485       Ni487   1.900       .  S
O485       Ni492   1.893       .  S
O486       Ni487   1.922       .  S
Ni487       O491   1.912       .  S
Ni487       O489   1.937       .  S
O488       Ni493   1.916       .  S
C490        O491   1.269       .  A
C490       C2464   1.473       .  S
O495       Ni501   1.913       .  S
O495        C516   1.266       .  A
O496       Ni519   1.932       .  S
O496        C505   1.274       .  A
O497       Ni501   1.905       .  S
O497       Ni519   1.913       .  S
O497       Ni513   1.910       .  S
O497        H520   0.966       .  S
C498        O515   1.273       .  A
C498        O507   1.274       .  A
C498       C1424   1.489       .  S
O499       Ni518   1.937       .  S
O499        C505   1.274       .  A
O500       Ni518   1.905       .  S
O500        C502   1.272       .  A
Ni501       O504   1.904       .  S
Ni501       O506   1.902       .  S
C502        O512   1.273       .  A
C502       C1377   1.482       .  S
O503       Ni519   1.933       .  S
O503        C509   1.281       .  A
O504        C509   1.274       .  A
C505       C1624   1.502       .  S
O506        C508   1.268       .  A
O507       Ni518   1.927       .  S
C508        O514   1.271       .  A
C508       C1357   1.485       .  S
C509       C1437   1.470       .  S
H510        O511   0.966       .  S
O511       Ni519   1.928       .  S
O511       Ni513   1.932       .  S
O511       Ni518   1.913       .  S
O512       Ni513   1.934       .  S
Ni513       O517   1.941       .  S
Ni513       O515   1.912       .  S
O514       Ni519   1.925       .  S
C516        O517   1.271       .  A
C516       C2404   1.499       .  S
O521       Ni527   1.922       .  S
O521        C542   1.269       .  A
O522       Ni545   1.929       .  S
O522        C531   1.273       .  A
O523       Ni527   1.920       .  S
O523       Ni545   1.923       .  S
O523       Ni539   1.929       .  S
O523        H546   0.966       .  S
C524        O541   1.270       .  A
C524        O533   1.270       .  A
C524       C1297   1.480   1_554  S
O525       Ni544   1.922       .  S
O525        C531   1.269       .  A
O526       Ni544   1.895       .  S
O526        C528   1.269       .  A
Ni527       O530   1.926       .  S
Ni527       O532   1.906       .  S
C528        O538   1.277       .  A
C528       C1464   1.471       .  S
O529       Ni545   1.915       .  S
O529        C535   1.270       .  A
O530        C535   1.270       .  A
C531       C1337   1.503       .  S
O532        C534   1.273       .  A
O533       Ni544   1.920       .  S
C534        O540   1.278       .  A
C534       C1277   1.488       .  S
C535       C1317   1.479       .  S
H536        O537   0.966       .  S
O537       Ni545   1.919       .  S
O537       Ni539   1.921       .  S
O537       Ni544   1.918       .  S
O538       Ni539   1.940       .  S
Ni539       O543   1.929       .  S
Ni539       O541   1.916       .  S
O540       Ni545   1.938       .  S
C542        O543   1.271       .  A
C542       C2644   1.485       .  S
O547       Ni553   1.914       .  S
O547        C568   1.268       .  A
O548       Ni571   1.932       .  S
O548        C557   1.273       .  A
O549       Ni553   1.914       .  S
O549       Ni571   1.923       .  S
O549       Ni565   1.936       .  S
O549        H572   0.966       .  S
C550        O567   1.275       .  A
C550        O559   1.273       .  A
C550       C1324   1.489       .  S
O551       Ni570   1.927       .  S
O551        C557   1.270       .  A
O552       Ni570   1.900       .  S
O552        C554   1.269       .  A
Ni553       O556   1.921       .  S
Ni553       O558   1.905       .  S
C554        O564   1.271       .  A
C554       C1384   1.473       .  S
O555       Ni571   1.919       .  S
O555        C561   1.271       .  A
O556        C561   1.268       .  A
C557       C1257   1.502       .  S
O558        C560   1.272       .  A
O559       Ni570   1.919       .  S
C560        O566   1.280       .  A
C560       C1237   1.472       .  S
C561       C1304   1.480       .  S
H562        O563   0.966       .  S
O563       Ni571   1.908       .  S
O563       Ni565   1.918       .  S
O563       Ni570   1.915       .  S
O564       Ni565   1.929       .  S
Ni565       O569   1.922       .  S
Ni565       O567   1.922       .  S
O566       Ni571   1.945       .  S
C568        O569   1.269       .  A
C568       C2557   1.478       .  S
O573       Ni579   1.922       .  S
O573        C594   1.272       .  A
O574       Ni597   1.917       .  S
O574        C583   1.270       .  A
O575       Ni579   1.913       .  S
O575       Ni597   1.913       .  S
O575       Ni591   1.934       .  S
O575        H598   0.966       .  S
C576        O593   1.274       .  A
C576        O585   1.273       .  A
C576       C1197   1.490       .  S
O577       Ni596   1.931       .  S
O577        C583   1.272       .  A
O578       Ni596   1.902       .  S
O578        C580   1.270       .  A
Ni579       O582   1.936       .  S
Ni579       O584   1.903       .  S
C580        O590   1.275       .  A
C580       C1604   1.478       .  S
O581       Ni597   1.913       .  S
O581        C587   1.266       .  A
O582        C587   1.271       .  A
C583       C1344   1.499       .  S
O584        C586   1.273       .  A
O585       Ni596   1.932       .  S
C586        O592   1.283       .  A
C586       C1184   1.484       .  S
C587       C1217   1.493       .  S
H588        O589   0.966       .  S
O589       Ni597   1.918       .  S
O589       Ni591   1.922       .  S
O589       Ni596   1.918       .  S
O590       Ni591   1.934       .  S
Ni591       O595   1.929       .  S
Ni591       O593   1.925       .  S
O592       Ni597   1.960       .  S
C594        O595   1.273       .  A
C594       C2177   1.490       .  S
O599       Ni605   1.929       .  S
O599        C620   1.270       .  A
O600       Ni623   1.927       .  S
O600        C609   1.273       .  A
O601       Ni605   1.914       .  S
O601       Ni623   1.916       .  S
O601       Ni617   1.920       .  S
O601        H624   0.966       .  S
C602        O619   1.280       .  A
C602        O611   1.276       .  A
C602       C1224   1.479       .  S
O603       Ni622   1.932       .  S
O603        C609   1.272       .  A
O604       Ni622   1.904       .  S
O604        C606   1.268       .  A
Ni605       O608   1.922       .  S
Ni605       O610   1.913       .  S
C606        O616   1.272       .  A
C606       C1497   1.481       .  S
O607       Ni623   1.934       .  S
O607        C613   1.280       .  A
O608        C613   1.276       .  A
C609       C1264   1.503       .  S
O610        C612   1.270       .  A
O611       Ni622   1.930       .  S
C612        O618   1.273       .  A
C612       C1157   1.493       .  S
C613       C1204   1.500       .  S
H614        O615   0.966       .  S
O615       Ni623   1.917       .  S
O615       Ni617   1.919       .  S
O615       Ni622   1.911       .  S
O616       Ni617   1.934       .  S
Ni617       O621   1.936       .  S
Ni617       O619   1.926       .  S
O618       Ni623   1.934       .  S
C620        O621   1.273       .  A
C620       C2144   1.493       .  S
O625       Ni631   1.928       .  S
O625        C646   1.274       .  A
O626       Ni649   1.910       .  S
O626        C635   1.271       .  A
O627       Ni631   1.894       .  S
O627       Ni649   1.897       .  S
O627       Ni643   1.913       .  S
O627        H650   0.966       .  S
C628        O645   1.281       .  A
C628        O637   1.279       .  A
C628       C1097   1.483       .  S
O629       Ni648   1.919       .  S
O629        C635   1.271       .  A
O630       Ni648   1.912       .  S
O630        C632   1.269       .  A
Ni631       O634   1.922   1_554  S
Ni631       O636   1.916       .  S
C632        O642   1.279       .  A
C632       C2024   1.513       .  S
O633       Ni649   1.937   1_556  S
O633        C639   1.283       .  A
O634        C639   1.279       .  A
C635       C1404   1.478       .  S
O636        C638   1.270       .  A
O637       Ni648   1.923       .  S
C638        O644   1.276       .  A
C638       C1137   1.493       .  S
C639       C1077   1.486       .  S
H640        O641   0.966       .  S
O641       Ni649   1.918       .  S
O641       Ni643   1.892       .  S
O641       Ni648   1.892       .  S
O642       Ni643   1.963       .  S
Ni643       O647   1.902       .  S
Ni643       O645   1.930       .  S
O644       Ni649   1.950       .  S
C646        O647   1.269       .  A
C646       C1117   1.485       .  S
O651       Ni657   1.926       .  S
O651        C672   1.274       .  A
O652       Ni675   1.905       .  S
O652        C661   1.268       .  A
O653       Ni657   1.900       .  S
O653       Ni675   1.899       .  S
O653       Ni669   1.918       .  S
O653        H676   0.967       .  S
C654        O671   1.280       .  A
C654        O663   1.278       .  A
C654       C1084   1.491       .  S
O655       Ni674   1.925       .  S
O655        C661   1.272       .  A
O656       Ni674   1.913       .  S
O656        C658   1.269       .  A
Ni657       O660   1.924       .  S
Ni657       O662   1.922       .  S
C658        O668   1.277       .  A
C658       C1957   1.513       .  S
O659       Ni675   1.929       .  S
O659        C665   1.280       .  A
O660        C665   1.278       .  A
C661       C1364   1.484       .  S
O662        C664   1.272       .  A
O663       Ni674   1.926       .  S
C664        O670   1.277       .  A
C664       C1057   1.513       .  S
C665       C1104   1.488       .  S
H666        O667   0.966       .  S
O667       Ni675   1.919       .  S
O667       Ni669   1.899       .  S
O667       Ni674   1.901       .  S
O668       Ni669   1.954       .  S
Ni669       O673   1.900       .  S
Ni669       O671   1.930       .  S
O670       Ni675   1.951       .  S
C672        O673   1.267       .  A
C672       C1037   1.470       .  S
O677       Ni683   1.928       .  S
O677        C698   1.271       .  A
O678       Ni701   1.932       .  S
O678        C687   1.274       .  A
O679       Ni683   1.900       .  S
O679       Ni701   1.912       .  S
O679       Ni695   1.902       .  S
O679        H702   0.966       .  S
C680        O697   1.270       .  A
C680        O689   1.268       .  A
C680        C977   1.480       .  S
O681       Ni700   1.923       .  S
O681        C687   1.271       .  A
O682       Ni700   1.896       .  S
O682        C684   1.274       .  A
Ni683       O686   1.921       .  S
Ni683       O688   1.903       .  S
C684        O694   1.284       .  A
C684       C1537   1.477       .  S
O685       Ni701   1.923       .  S
O685        C691   1.278       .  A
O686        C691   1.277       .  A
C687       C1657   1.495       .  S
O688        C690   1.268       .  A
O689       Ni700   1.927       .  S
C690        O696   1.272       .  A
C690       C1024   1.479       .  S
C691        C997   1.482       .  S
H692        O693   0.968       .  S
O693       Ni701   1.942       .  S
O693       Ni695   1.928       .  S
O693       Ni700   1.915       .  S
O694       Ni695   1.958       .  S
Ni695       O699   1.950       .  S
Ni695       O697   1.917       .  S
O696       Ni701   1.929       .  S
C698        O699   1.278       .  A
C698       C1064   1.515       .  S
O703       Ni709   1.932       .  S
O703        C724   1.272       .  A
O704       Ni727   1.939       .  S
O704        C713   1.273       .  A
O705       Ni709   1.899       .  S
O705       Ni727   1.919       .  S
O705       Ni721   1.916       .  S
O705        H728   0.966       .  S
C706        O723   1.283       .  A
C706        O715   1.276       .  A
C706       C1004   1.491       .  S
O707       Ni726   1.922       .  S
O707        C713   1.269       .  A
O708       Ni726   1.907       .  S
O708        C710   1.269       .  A
Ni709       O712   1.923       .  S
Ni709       O714   1.902       .  S
C710        O720   1.273       .  A
C710       C1477   1.487       .  S
O711       Ni727   1.924       .  S
O711        C717   1.279       .  A
O712        C717   1.278       .  A
C713       C1644   1.504       .  S
O714        C716   1.268       .  A
O715       Ni726   1.915   1_554  S
C716        O722   1.274       .  A
C716        C957   1.485       .  S
C717        C984   1.494       .  S
H718        O719   0.966       .  S
O719       Ni727   1.915       .  S
O719       Ni721   1.914       .  S
O719       Ni726   1.902       .  S
O720       Ni721   1.936       .  S
Ni721       O725   1.936       .  S
Ni721       O723   1.936   1_556  S
O722       Ni727   1.935       .  S
C724        O725   1.274       .  A
C724       C1144   1.498       .  S
O729       Ni735   1.924       .  S
O729        C750   1.271       .  A
O730       Ni753   1.922       .  S
O730        C739   1.271       .  A
O731       Ni735   1.919       .  S
O731       Ni753   1.916       .  S
O731       Ni747   1.916       .  S
O731        H754   0.966       .  S
C732        O749   1.267       .  A
C732        O741   1.271       .  A
C732        C924   1.491       .  S
O733       Ni752   1.923       .  S
O733        C739   1.271       .  A
O734       Ni752   1.908       .  S
O734        C736   1.273       .  A
Ni735       O738   1.930       .  S
Ni735       O740   1.904       .  S
C736        O746   1.281       .  A
C736       C1177   1.497       .  S
O737       Ni753   1.915       .  S
O737        C743   1.271       .  A
O738        C743   1.272       .  A
C739       C1757   1.483       .  S
O740        C742   1.270       .  A
O741       Ni752   1.933       .  S
C742        O748   1.277       .  A
C742       C1017   1.488       .  S
C743        C897   1.488       .  S
H744        O745   0.966       .  S
O745       Ni753   1.927       .  S
O745       Ni747   1.913       .  S
O745       Ni752   1.918       .  S
O746       Ni747   1.955       .  S
Ni747       O751   1.916       .  S
Ni747       O749   1.910       .  S
O748       Ni753   1.948       .  S
C750        O751   1.270       .  A
C750        C937   1.493       .  S
O755       Ni761   1.931       .  S
O755        C776   1.271       .  A
O756       Ni779   1.929       .  S
O756        C765   1.271       .  A
O757       Ni761   1.904       .  S
O757       Ni779   1.917       .  S
O757       Ni773   1.921       .  S
O757        H780   0.967       .  S
C758        O775   1.283       .  A
C758        O767   1.277       .  A
C758        C904   1.494       .  S
O759       Ni778   1.926       .  S
O759        C765   1.269       .  A
O760       Ni778   1.901       .  S
O760        C762   1.268       .  A
Ni761       O764   1.927       .  S
Ni761       O766   1.905       .  S
C762        O772   1.276       .  A
C762       C1164   1.493       .  S
O763       Ni779   1.924       .  S
O763        C769   1.279       .  A
O764        C769   1.278       .  A
C765       C1724   1.488       .  S
O766        C768   1.268       .  A
O767       Ni778   1.918       .  S
C768        O774   1.273       .  A
C768        C964   1.482       .  S
C769        C917   1.489       .  S
H770        O771   0.965       .  S
O771       Ni779   1.913       .  S
O771       Ni773   1.911       .  S
O771       Ni778   1.900       .  S
O772       Ni773   1.946       .  S
Ni773       O777   1.934       .  S
Ni773       O775   1.933       .  S
O774       Ni779   1.934       .  S
C776        O777   1.275       .  A
C776        C884   1.505       .  S
O781       Ni787   1.922       .  S
O781        C802   1.270       .  A
O782       Ni805   1.925       .  S
O782        C791   1.271       .  A
O783       Ni787   1.906       .  S
O783       Ni805   1.914       .  S
O783       Ni799   1.908       .  S
O783        H806   0.965       .  S
C784        O801   1.270       .  A
C784        O793   1.267       .  A
C784        C857   1.494       .  S
O785       Ni804   1.915       .  S
O785        C791   1.269       .  A
O786       Ni804   1.900       .  S
O786        C788   1.273       .  A
Ni787       O790   1.920       .  S
Ni787       O792   1.894       .  S
C788        O798   1.282       .  A
C788       C1284   1.466       .  S
O789       Ni805   1.916       .  S
O789        C795   1.273       .  A
O790        C795   1.273       .  A
C791       C1884   1.488       .  S
O792        C794   1.267       .  A
O793       Ni804   1.926       .  S
C794        O800   1.274       .  A
C794       C1124   1.480       .  S
C795        C837   1.483       .  S
H796        O797   0.960       .  S
O797       Ni805   1.938       .  S
O797       Ni799   1.921       .  S
O797       Ni804   1.914       .  S
O798       Ni799   1.953       .  S
Ni799       O803   1.927       .  S
Ni799       O801   1.924       .  S
O800       Ni805   1.935       .  S
C802        O803   1.274       .  A
C802        C944   1.496       .  S
O807       Ni813   1.921       .  S
O807        C828   1.268       .  A
O808       Ni831   1.930       .  S
O808        C817   1.272       .  A
O809       Ni813   1.895       .  S
O809       Ni831   1.913       .  S
O809       Ni825   1.912       .  S
O809        H832   0.966       .  S
C810        O827   1.276       .  A
C810        O819   1.274       .  A
C810        C844   1.478       .  S
O811       Ni830   1.922       .  S
O811        C817   1.269       .  A
O812       Ni830   1.902       .  S
O812        C814   1.268       .  A
Ni813       O816   1.912       .  S
Ni813       O818   1.895       .  S
C814        O824   1.273       .  A
C814       C1244   1.488       .  S
O815       Ni831   1.936       .  S
O815        C821   1.282       .  A
O816        C821   1.276       .  A
C817       C1844   1.491       .  S
O818        C820   1.266       .  A
O819       Ni830   1.915       .  S
C820        O826   1.271       .  A
C820       C1044   1.489       .  S
C821        C864   1.490       .  S
H822        O823   0.966       .  S
O823       Ni831   1.924       .  S
O823       Ni825   1.919       .  S
O823       Ni830   1.906       .  S
O824       Ni825   1.925       .  S
Ni825       O829   1.939       .  S
Ni825       O827   1.921       .  S
O826       Ni831   1.928       .  S
C828        O829   1.275       .  A
C828        C877   1.498       .  S
C833        C834   1.398       .  A
C833        C838   1.394   1_556  A
C833        F851   1.358       .  S
C834        C839   1.472       .  S
C834        C835   1.404       .  A
C835        C836   1.402   1_556  A
C835        F840   1.358       .  S
C836        C837   1.409       .  A
C836        F852   1.358       .  S
C837        C838   1.413       .  A
C838        F841   1.358       .  S
C839        C842   1.401       .  A
C839        C846   1.403       .  A
C842        C843   1.397       .  A
C842        F847   1.358       .  S
C843        C844   1.410       .  A
C843        F849   1.358       .  S
C844        C845   1.408       .  A
C845        C846   1.399       .  A
C845        F848   1.358       .  S
C846        F850   1.358       .  S
C853        C854   1.409       .  A
C853        C858   1.403       .  A
C853        F871   1.358       .  S
C854        C859   1.488       .  S
C854        C855   1.402       .  A
C855        C856   1.398       .  A
C855        F860   1.358       .  S
C856        C857   1.416       .  A
C856        F872   1.358       .  S
C857        C858   1.410       .  A
C858        F861   1.358       .  S
C859        C862   1.402       .  A
C859        C866   1.410       .  A
C862        C863   1.395       .  A
C862        F867   1.358       .  S
C863        C864   1.413       .  A
C863        F869   1.358       .  S
C864        C865   1.409       .  A
C865        C866   1.405       .  A
C865        F868   1.357       .  S
C866        F870   1.358       .  S
C873        C874   1.403       .  A
C873        C878   1.401       .  A
C873        F891   1.358       .  S
C874        C879   1.495       .  S
C874        C875   1.410       .  A
C875        C876   1.410       .  A
C875        F880   1.357       .  S
C876        C877   1.409       .  A
C876        F892   1.357       .  S
C877        C878   1.415       .  A
C878        F881   1.358       .  S
C879        C882   1.408       .  A
C879        C886   1.403       .  A
C882        C883   1.409       .  A
C882        F887   1.357       .  S
C883        C884   1.413       .  A
C883        F889   1.357       .  S
C884        C885   1.418       .  A
C885        C886   1.402       .  A
C885        F888   1.358       .  S
C886        F890   1.358       .  S
C893        C894   1.404       .  A
C893        C898   1.398       .  A
C893        F911   1.358       .  S
C894        C899   1.487       .  S
C894        C895   1.408       .  A
C895        C896   1.401       .  A
C895        F900   1.358       .  S
C896        C897   1.409       .  A
C896        F912   1.358       .  S
C897        C898   1.413       .  A
C898        F901   1.358       .  S
C899        C902   1.402       .  A
C899        C906   1.408       .  A
C902        C903   1.397       .  A
C902        F907   1.358       .  S
C903        C904   1.416       .  A
C903        F909   1.358       .  S
C904        C905   1.411       .  A
C905        C906   1.402       .  A
C905        F908   1.358       .  S
C906        F910   1.358       .  S
C913        C914   1.403       .  A
C913        C918   1.400       .  A
C913        F931   1.358       .  S
C914        C919   1.483       .  S
C914        C915   1.406       .  A
C915        C916   1.402       .  A
C915        F920   1.358       .  S
C916        C917   1.410   1_554  A
C916        F932   1.358   1_554  S
C917        C918   1.412   1_556  A
C918        F921   1.358   1_554  S
C919        C922   1.405       .  A
C919        C926   1.402       .  A
C922        C923   1.402       .  A
C922        F927   1.358       .  S
C923        C924   1.412       .  A
C923        F929   1.358       .  S
C924        C925   1.413       .  A
C925        C926   1.398       .  A
C925        F928   1.358       .  S
C926        F930   1.358       .  S
C933        C934   1.402       .  A
C933        C938   1.399       .  A
C933        F951   1.358       .  S
C934        C939   1.488       .  S
C934        C935   1.408       .  A
C935        C936   1.405       .  A
C935        F940   1.358       .  S
C936        C937   1.411       .  A
C936        F952   1.358       .  S
C937        C938   1.413       .  A
C938        F941   1.358       .  S
C939        C942   1.407       .  A
C939        C946   1.402       .  A
C942        C943   1.406       .  A
C942        F947   1.357       .  S
C943        C944   1.410       .  A
C943        F949   1.357       .  S
C944        C945   1.417       .  A
C945        C946   1.399       .  A
C945        F948   1.358       .  S
C946        F950   1.358       .  S
C953        C954   1.405       .  A
C953        C958   1.398       .  A
C953        F971   1.358       .  S
C954        C959   1.485       .  S
C954        C955   1.406       .  A
C955        C956   1.403       .  A
C955        F960   1.357       .  S
C956        C957   1.409       .  A
C956        F972   1.358       .  S
C957        C958   1.410       .  A
C958        F961   1.358       .  S
C959        C962   1.406       .  A
C959        C966   1.406       .  A
C962        C963   1.403       .  A
C962        F967   1.358       .  S
C963        C964   1.409       .  A
C963        F969   1.358       .  S
C964        C965   1.407       .  A
C965        C966   1.398       .  A
C965        F968   1.358       .  S
C966        F970   1.358       .  S
C973        C974   1.403       .  A
C973        C978   1.400       .  A
C973        F991   1.358       .  S
C974        C979   1.479       .  S
C974        C975   1.405       .  A
C975        C976   1.399       .  A
C975        F980   1.358       .  S
C976        C977   1.406       .  A
C976        F992   1.358       .  S
C977        C978   1.411       .  A
C978        F981   1.358       .  S
C979        C982   1.405       .  A
C979        C986   1.399       .  A
C982        C983   1.403       .  A
C982        F987   1.358       .  S
C983        C984   1.414       .  A
C983        F989   1.358       .  S
C984        C985   1.415       .  A
C985        C986   1.395       .  A
C985        F988   1.358       .  S
C986        F990   1.358       .  S
C993        C994   1.404       .  A
C993        C998   1.396       .  A
C993       F1011   1.358       .  S
C994        C999   1.487       .  S
C994        C995   1.409       .  A
C995        C996   1.403       .  A
C995       F1000   1.358       .  S
C996        C997   1.408       .  A
C996       F1012   1.358       .  S
C997        C998   1.408       .  A
C998       F1001   1.358       .  S
C999       C1002   1.409       .  A
C999       C1006   1.402       .  A
C1002      C1003   1.402       .  A
C1002      F1007   1.358       .  S
C1003      C1004   1.409       .  A
C1003      F1009   1.358       .  S
C1004      C1005   1.415       .  A
C1005      C1006   1.398       .  A
C1005      F1008   1.358       .  S
C1006      F1010   1.358       .  S
C1013      C1014   1.404       .  A
C1013      C1018   1.401       .  A
C1013      F1031   1.358       .  S
C1014      C1019   1.482       .  S
C1014      C1015   1.404       .  A
C1015      C1016   1.397       .  A
C1015      F1020   1.358       .  S
C1016      C1017   1.410       .  A
C1016      F1032   1.358       .  S
C1017      C1018   1.412       .  A
C1018      F1021   1.358       .  S
C1019      C1022   1.405       .  A
C1019      C1026   1.406       .  A
C1022      C1023   1.396       .  A
C1022      F1027   1.358       .  S
C1023      C1024   1.407       .  A
C1023      F1029   1.358       .  S
C1024      C1025   1.409       .  A
C1025      C1026   1.403       .  A
C1025      F1028   1.358       .  S
C1026      F1030   1.358       .  S
C1033      C1034   1.402       .  A
C1033      C1038   1.393       .  A
C1033      F1051   1.358       .  S
C1034      C1039   1.470       .  S
C1034      C1035   1.403       .  A
C1035      C1036   1.401       .  A
C1035      F1040   1.357       .  S
C1036      C1037   1.408       .  A
C1036      F1052   1.358       .  S
C1037      C1038   1.405       .  A
C1038      F1041   1.358       .  S
C1039      C1042   1.401       .  A
C1039      C1046   1.398       .  A
C1042      C1043   1.402       .  A
C1042      F1047   1.358       .  S
C1043      C1044   1.414       .  A
C1043      F1049   1.358       .  S
C1044      C1045   1.414       .  A
C1045      C1046   1.391       .  A
C1045      F1048   1.358       .  S
C1046      F1050   1.359       .  S
C1053      C1054   1.409       .  A
C1053      C1058   1.405       .  A
C1053      F1071   1.358       .  S
C1054      C1059   1.510       .  S
C1054      C1055   1.410       .  A
C1055      C1056   1.414       .  A
C1055      F1060   1.357       .  S
C1056      C1057   1.416       .  A
C1056      F1072   1.358       .  S
C1057      C1058   1.414       .  A
C1058      F1061   1.358       .  S
C1059      C1062   1.413       .  A
C1059      C1066   1.406       .  A
C1062      C1063   1.417       .  A
C1062      F1067   1.357       .  S
C1063      C1064   1.415       .  A
C1063      F1069   1.357       .  S
C1064      C1065   1.418       .  A
C1065      C1066   1.402       .  A
C1065      F1068   1.358       .  S
C1066      F1070   1.358       .  S
C1073      C1074   1.408       .  A
C1073      C1078   1.404       .  A
C1073      F1091   1.358       .  S
C1074      C1079   1.487       .  S
C1074      C1075   1.403       .  A
C1075      C1076   1.399       .  A
C1075      F1080   1.358       .  S
C1076      C1077   1.410       .  A
C1076      F1092   1.358       .  S
C1077      C1078   1.408       .  A
C1078      F1081   1.358       .  S
C1079      C1082   1.403       .  A
C1079      C1086   1.407       .  A
C1082      C1083   1.400       .  A
C1082      F1087   1.358       .  S
C1083      C1084   1.412       .  A
C1083      F1089   1.358       .  S
C1084      C1085   1.411       .  A
C1085      C1086   1.404       .  A
C1085      F1088   1.358       .  S
C1086      F1090   1.358       .  S
C1093      C1094   1.406       .  A
C1093      C1098   1.403       .  A
C1093      F1111   1.358       .  S
C1094      C1099   1.483       .  S
C1094      C1095   1.403       .  A
C1095      C1096   1.399       .  A
C1095      F1100   1.358       .  S
C1096      C1097   1.409       .  A
C1096      F1112   1.358       .  S
C1097      C1098   1.409       .  A
C1098      F1101   1.358       .  S
C1099      C1102   1.403       .  A
C1099      C1106   1.406       .  A
C1102      C1103   1.399       .  A
C1102      F1107   1.358       .  S
C1103      C1104   1.412       .  A
C1103      F1109   1.358       .  S
C1104      C1105   1.409       .  A
C1105      C1106   1.403       .  A
C1105      F1108   1.358       .  S
C1106      F1110   1.358       .  S
C1113      C1114   1.402       .  A
C1113      C1118   1.400       .  A
C1113      F1131   1.358       .  S
C1114      C1119   1.474       .  S
C1114      C1115   1.402       .  A
C1115      C1116   1.393       .  A
C1115      F1120   1.358       .  S
C1116      C1117   1.411       .  A
C1116      F1132   1.358       .  S
C1117      C1118   1.413       .  A
C1118      F1121   1.358       .  S
C1119      C1122   1.401       .  A
C1119      C1126   1.404       .  A
C1122      C1123   1.393       .  A
C1122      F1127   1.358       .  S
C1123      C1124   1.410       .  A
C1123      F1129   1.358       .  S
C1124      C1125   1.411       .  A
C1125      C1126   1.400       .  A
C1125      F1128   1.358       .  S
C1126      F1130   1.358       .  S
C1133      C1134   1.413       .  A
C1133      C1138   1.414       .  A
C1133      F1151   1.357       .  S
C1134      C1139   1.504       .  S
C1134      C1135   1.408   1_554  A
C1135      C1136   1.400       .  A
C1135      F1140   1.358       .  S
C1136      C1137   1.407   1_556  A
C1136      F1152   1.358       .  S
C1137      C1138   1.409       .  A
C1138      F1141   1.357       .  S
C1139      C1142   1.411       .  A
C1139      C1146   1.408       .  A
C1142      C1143   1.412       .  A
C1142      F1147   1.357       .  S
C1143      C1144   1.411   1_554  A
C1143      F1149   1.357       .  S
C1144      C1145   1.410       .  A
C1145      C1146   1.401   1_556  A
C1145      F1148   1.358       .  S
C1146      F1150   1.358       .  S
C1153      C1154   1.406       .  A
C1153      C1158   1.401       .  A
C1153      F1171   1.358       .  S
C1154      C1159   1.491       .  S
C1154      C1155   1.406       .  A
C1155      C1156   1.405       .  A
C1155      F1160   1.357       .  S
C1156      C1157   1.411       .  A
C1156      F1172   1.358       .  S
C1157      C1158   1.411       .  A
C1158      F1161   1.358       .  S
C1159      C1162   1.404       .  A
C1159      C1166   1.408       .  A
C1162      C1163   1.398       .  A
C1162      F1167   1.358       .  S
C1163      C1164   1.412       .  A
C1163      F1169   1.358       .  S
C1164      C1165   1.411       .  A
C1165      C1166   1.408       .  A
C1165      F1168   1.358       .  S
C1166      F1170   1.357       .  S
C1173      C1174   1.407       .  A
C1173      C1178   1.406       .  A
C1173      F1191   1.358       .  S
C1174      C1179   1.493       .  S
C1174      C1175   1.406       .  A
C1175      C1176   1.399       .  A
C1175      F1180   1.358       .  S
C1176      C1177   1.412       .  A
C1176      F1192   1.358       .  S
C1177      C1178   1.414       .  A
C1178      F1181   1.358       .  S
C1179      C1182   1.407       .  A
C1179      C1186   1.410       .  A
C1182      C1183   1.399       .  A
C1182      F1187   1.358       .  S
C1183      C1184   1.407       .  A
C1183      F1189   1.358       .  S
C1184      C1185   1.408       .  A
C1185      C1186   1.405       .  A
C1185      F1188   1.358       .  S
C1186      F1190   1.358       .  S
C1193      C1194   1.410       .  A
C1193      C1198   1.406       .  A
C1193      F1211   1.358       .  S
C1194      C1199   1.492       .  S
C1194      C1195   1.404       .  A
C1195      C1196   1.399       .  A
C1195      F1200   1.358       .  S
C1196      C1197   1.413       .  A
C1196      F1212   1.358       .  S
C1197      C1198   1.407       .  A
C1198      F1201   1.357       .  S
C1199      C1202   1.403       .  A
C1199      C1206   1.408       .  A
C1202      C1203   1.401       .  A
C1202      F1207   1.358       .  S
C1203      C1204   1.417       .  A
C1203      F1209   1.358       .  S
C1204      C1205   1.413       .  A
C1205      C1206   1.404       .  A
C1205      F1208   1.358       .  S
C1206      F1210   1.358       .  S
C1213      C1214   1.402       .  A
C1213      C1218   1.396       .  A
C1213      F1231   1.358       .  S
C1214      C1219   1.486       .  S
C1214      C1215   1.407       .  A
C1215      C1216   1.407       .  A
C1215      F1220   1.358       .  S
C1216      C1217   1.414       .  A
C1216      F1232   1.358       .  S
C1217      C1218   1.411       .  A
C1218      F1221   1.358       .  S
C1219      C1222   1.407       .  A
C1219      C1226   1.406       .  A
C1222      C1223   1.401   1_554  A
C1222      F1227   1.358       .  S
C1223      C1224   1.404       .  A
C1223      F1229   1.358       .  S
C1224      C1225   1.408       .  A
C1225      C1226   1.404   1_556  A
C1225      F1228   1.358       .  S
C1226      F1230   1.358       .  S
C1233      C1234   1.407       .  A
C1233      C1238   1.400       .  A
C1233      F1251   1.358       .  S
C1234      C1239   1.477       .  S
C1234      C1235   1.403       .  A
C1235      C1236   1.395       .  A
C1235      F1240   1.358       .  S
C1236      C1237   1.407       .  A
C1236      F1252   1.358       .  S
C1237      C1238   1.405       .  A
C1238      F1241   1.358       .  S
C1239      C1242   1.403       .  A
C1239      C1246   1.402       .  A
C1242      C1243   1.397       .  A
C1242      F1247   1.358       .  S
C1243      C1244   1.411       .  A
C1243      F1249   1.358       .  S
C1244      C1245   1.415       .  A
C1245      C1246   1.397       .  A
C1245      F1248   1.358       .  S
C1246      F1250   1.358       .  S
C1253      C1254   1.403       .  A
C1253      C1258   1.402       .  A
C1253      F1271   1.358       .  S
C1254      C1259   1.495       .  S
C1254      C1255   1.409       .  A
C1255      C1256   1.408       .  A
C1255      F1260   1.357       .  S
C1256      C1257   1.411       .  A
C1256      F1272   1.356       .  S
C1257      C1258   1.417       .  A
C1258      F1261   1.358       .  S
C1259      C1262   1.403       .  A
C1259      C1266   1.409       .  A
C1262      C1263   1.401       .  A
C1262      F1267   1.358       .  S
C1263      C1264   1.416       .  A
C1263      F1269   1.358       .  S
C1264      C1265   1.413       .  A
C1265      C1266   1.409       .  A
C1265      F1268   1.357       .  S
C1266      F1270   1.358       .  S
C1273      C1274   1.403       .  A
C1273      C1278   1.396       .  A
C1273      F1291   1.358       .  S
C1274      C1279   1.481       .  S
C1274      C1275   1.405       .  A
C1275      C1276   1.397       .  A
C1275      F1280   1.358       .  S
C1276      C1277   1.412       .  A
C1276      F1292   1.358       .  S
C1277      C1278   1.413       .  A
C1278      F1281   1.358       .  S
C1279      C1282   1.408       .  A
C1279      C1286   1.406       .  A
C1282      C1283   1.397       .  A
C1282      F1287   1.358       .  S
C1283      C1284   1.402       .  A
C1283      F1289   1.358       .  S
C1284      C1285   1.404       .  A
C1285      C1286   1.397       .  A
C1285      F1288   1.358       .  S
C1286      F1290   1.358       .  S
C1293      C1294   1.403       .  A
C1293      C1298   1.395       .  A
C1293      F1311   1.358       .  S
C1294      C1299   1.483       .  S
C1294      C1295   1.409       .  A
C1295      C1296   1.402       .  A
C1295      F1300   1.358       .  S
C1296      C1297   1.407       .  A
C1296      F1312   1.358       .  S
C1297      C1298   1.410       .  A
C1298      F1301   1.358       .  S
C1299      C1302   1.409       .  A
C1299      C1306   1.402       .  A
C1302      C1303   1.401       .  A
C1302      F1307   1.358       .  S
C1303      C1304   1.405       .  A
C1303      F1309   1.357       .  S
C1304      C1305   1.411       .  A
C1305      C1306   1.395       .  A
C1305      F1308   1.358       .  S
C1306      F1310   1.358       .  S
C1313      C1314   1.404       .  A
C1313      C1318   1.398       .  A
C1313      F1331   1.358       .  S
C1314      C1319   1.484       .  S
C1314      C1315   1.409       .  A
C1315      C1316   1.403       .  A
C1315      F1320   1.358       .  S
C1316      C1317   1.405       .  A
C1316      F1332   1.357       .  S
C1317      C1318   1.408       .  A
C1318      F1321   1.358       .  S
C1319      C1322   1.408       .  A
C1319      C1326   1.401       .  A
C1322      C1323   1.404       .  A
C1322      F1327   1.358       .  S
C1323      C1324   1.409       .  A
C1323      F1329   1.358       .  S
C1324      C1325   1.413       .  A
C1325      C1326   1.396       .  A
C1325      F1328   1.358       .  S
C1326      F1330   1.358       .  S
C1333      C1334   1.406       .  A
C1333      C1338   1.408       .  A
C1333      F1351   1.357       .  S
C1334      C1339   1.487       .  S
C1334      C1335   1.400       .  A
C1335      C1336   1.400       .  A
C1335      F1340   1.358       .  S
C1336      C1337   1.419       .  A
C1336      F1352   1.358       .  S
C1337      C1338   1.413       .  A
C1338      F1341   1.357       .  S
C1339      C1342   1.406       .  A
C1339      C1346   1.401       .  A
C1342      C1343   1.407       .  A
C1342      F1347   1.357       .  S
C1343      C1344   1.413       .  A
C1343      F1349   1.358       .  S
C1344      C1345   1.416       .  A
C1345      C1346   1.401       .  A
C1345      F1348   1.358       .  S
C1346      F1350   1.358       .  S
C1353      C1354   1.403       .  A
C1353      C1358   1.401       .  A
C1353      F1371   1.358       .  S
C1354      C1359   1.474   1_655  S
C1354      C1355   1.401       .  A
C1355      C1356   1.394       .  A
C1355      F1360   1.358       .  S
C1356      C1357   1.412       .  A
C1356      F1372   1.358       .  S
C1357      C1358   1.412       .  A
C1358      F1361   1.358       .  S
C1359      C1362   1.403       .  A
C1359      C1366   1.401       .  A
C1362      C1363   1.402       .  A
C1362      F1367   1.358       .  S
C1363      C1364   1.413       .  A
C1363      F1369   1.358       .  S
C1364      C1365   1.412       .  A
C1365      C1366   1.391       .  A
C1365      F1368   1.358       .  S
C1366      F1370   1.359   1_455  S
C1373      C1374   1.402       .  A
C1373      C1378   1.392       .  A
C1373      F1391   1.358       .  S
C1374      C1379   1.476       .  S
C1374      C1375   1.404       .  A
C1375      C1376   1.404       .  A
C1375      F1380   1.358       .  S
C1376      C1377   1.412       .  A
C1376      F1392   1.358       .  S
C1377      C1378   1.408       .  A
C1378      F1381   1.358       .  S
C1379      C1382   1.406       .  A
C1379      C1386   1.403       .  A
C1382      C1383   1.404       .  A
C1382      F1387   1.358       .  S
C1383      C1384   1.409       .  A
C1383      F1389   1.358       .  S
C1384      C1385   1.404       .  A
C1385      C1386   1.392       .  A
C1385      F1388   1.358       .  S
C1386      F1390   1.358       .  S
C1393      C1394   1.404       .  A
C1393      C1398   1.396       .  A
C1393      F1411   1.358       .  S
C1394      C1399   1.476   1_655  S
C1394      C1395   1.405   1_554  A
C1395      C1396   1.396       .  A
C1395      F1400   1.358       .  S
C1396      C1397   1.407   1_556  A
C1396      F1412   1.358       .  S
C1397      C1398   1.407       .  A
C1398      F1401   1.358       .  S
C1399      C1402   1.406       .  A
C1399      C1406   1.402       .  A
C1402      C1403   1.400       .  A
C1402      F1407   1.358   1_554  S
C1403      C1404   1.408       .  A
C1403      F1409   1.358       .  S
C1404      C1405   1.410       .  A
C1405      C1406   1.391       .  A
C1405      F1408   1.358       .  S
C1406      F1410   1.358       .  S
C1413      C1414   1.404       .  A
C1413      C1418   1.400       .  A
C1413      F1431   1.358       .  S
C1414      C1419   1.482       .  S
C1414      C1415   1.405       .  A
C1415      C1416   1.399       .  A
C1415      F1420   1.358       .  S
C1416      C1417   1.410       .  A
C1416      F1432   1.358       .  S
C1417      C1418   1.411       .  A
C1418      F1421   1.358       .  S
C1419      C1422   1.405       .  A
C1419      C1426   1.403       .  A
C1422      C1423   1.401       .  A
C1422      F1427   1.358       .  S
C1423      C1424   1.410       .  A
C1423      F1429   1.358       .  S
C1424      C1425   1.414       .  A
C1425      C1426   1.397       .  A
C1425      F1428   1.358       .  S
C1426      F1430   1.358       .  S
C1433      C1434   1.402       .  A
C1433      C1438   1.395       .  A
C1433      F1451   1.358       .  S
C1434      C1439   1.477       .  S
C1434      C1435   1.408       .  A
C1435      C1436   1.400       .  A
C1435      F1440   1.358       .  S
C1436      C1437   1.404       .  A
C1436      F1452   1.358       .  S
C1437      C1438   1.407       .  A
C1438      F1441   1.358       .  S
C1439      C1442   1.407       .  A
C1439      C1446   1.399       .  A
C1442      C1443   1.402       .  A
C1442      F1447   1.358       .  S
C1443      C1444   1.409       .  A
C1443      F1449   1.358       .  S
C1444      C1445   1.415       .  A
C1445      C1446   1.392       .  A
C1445      F1448   1.359       .  S
C1446      F1450   1.358       .  S
C1453      C1454   1.401       .  A
C1453      C1458   1.392       .  A
C1453      F1471   1.358       .  S
C1454      C1459   1.473       .  S
C1454      C1455   1.403       .  A
C1455      C1456   1.400       .  A
C1455      F1460   1.358       .  S
C1456      C1457   1.411       .  A
C1456      F1472   1.358       .  S
C1457      C1458   1.412       .  A
C1458      F1461   1.358       .  S
C1459      C1462   1.404       .  A
C1459      C1466   1.403       .  A
C1462      C1463   1.400       .  A
C1462      F1467   1.358       .  S
C1463      C1464   1.407       .  A
C1463      F1469   1.358       .  S
C1464      C1465   1.406       .  A
C1465      C1466   1.393       .  A
C1465      F1468   1.358       .  S
C1466      F1470   1.358       .  S
C1473      C1474   1.406       .  A
C1473      C1478   1.398   1_556  A
C1473      F1491   1.358   1_556  S
C1474      C1479   1.490   1_455  S
C1474      C1475   1.408       .  A
C1475      C1476   1.407       .  A
C1475      F1480   1.357       .  S
C1476      C1477   1.410       .  A
C1476      F1492   1.358       .  S
C1477      C1478   1.408   1_556  A
C1478      F1481   1.358       .  S
C1479      C1482   1.407       .  A
C1479      C1486   1.404       .  A
C1482      C1483   1.408       .  A
C1482      F1487   1.358       .  S
C1483      C1484   1.413       .  A
C1483      F1489   1.358       .  S
C1484      C1485   1.411       .  A
C1485      C1486   1.398       .  A
C1485      F1488   1.358       .  S
C1486      F1490   1.358       .  S
C1493      C1494   1.405       .  A
C1493      C1498   1.403       .  A
C1493      F1511   1.358       .  S
C1494      C1499   1.483       .  S
C1494      C1495   1.405       .  A
C1495      C1496   1.396       .  A
C1495      F1500   1.358       .  S
C1496      C1497   1.406       .  A
C1496      F1512   1.358       .  S
C1497      C1498   1.410       .  A
C1498      F1501   1.358       .  S
C1499      C1502   1.405       .  A
C1499      C1506   1.404       .  A
C1502      C1503   1.404       .  A
C1502      F1507   1.357       .  S
C1503      C1504   1.412       .  A
C1503      F1509   1.358       .  S
C1504      C1505   1.410       .  A
C1505      C1506   1.396       .  A
C1505      F1508   1.358       .  S
C1506      F1510   1.358       .  S
C1513      C1514   1.407       .  A
C1513      C1518   1.403       .  A
C1513      F1531   1.358       .  S
C1514      C1519   1.480       .  S
C1514      C1515   1.400   1_556  A
C1515      C1516   1.396       .  A
C1515      F1520   1.358       .  S
C1516      C1517   1.413       .  A
C1516      F1532   1.358       .  S
C1517      C1518   1.407   1_554  A
C1518      F1521   1.357       .  S
C1519      C1522   1.405       .  A
C1519      C1526   1.400       .  A
C1522      C1523   1.404       .  A
C1522      F1527   1.358   1_556  S
C1523      C1524   1.413       .  A
C1523      F1529   1.357   1_556  S
C1524      C1525   1.415       .  A
C1525      C1526   1.396       .  A
C1525      F1528   1.358       .  S
C1526      F1530   1.358       .  S
C1533      C1534   1.407       .  A
C1533      C1538   1.401       .  A
C1533      F1551   1.358       .  S
C1534      C1539   1.479   1_455  S
C1534      C1535   1.403       .  A
C1535      C1536   1.394       .  A
C1535      F1540   1.358       .  S
C1536      C1537   1.408       .  A
C1536      F1552   1.358       .  S
C1537      C1538   1.407       .  A
C1538      F1541   1.358       .  S
C1539      C1542   1.402       .  A
C1539      C1546   1.405       .  A
C1542      C1543   1.393       .  A
C1542      F1547   1.359       .  S
C1543      C1544   1.413       .  A
C1543      F1549   1.358       .  S
C1544      C1545   1.411       .  A
C1545      C1546   1.401       .  A
C1545      F1548   1.358       .  S
C1546      F1550   1.358       .  S
C1553      C1554   1.405       .  A
C1553      C1558   1.402       .  A
C1553      F1571   1.358       .  S
C1554      C1559   1.480       .  S
C1554      C1555   1.402       .  A
C1555      C1556   1.396       .  A
C1555      F1560   1.358       .  S
C1556      C1557   1.411       .  A
C1556      F1572   1.358       .  S
C1557      C1558   1.412       .  A
C1558      F1561   1.358       .  S
C1559      C1562   1.402       .  A
C1559      C1566   1.405       .  A
C1562      C1563   1.398       .  A
C1562      F1567   1.358       .  S
C1563      C1564   1.414       .  A
C1563      F1569   1.358       .  S
C1564      C1565   1.410       .  A
C1565      C1566   1.400       .  A
C1565      F1568   1.357       .  S
C1566      F1570   1.358       .  S
C1573      C1574   1.403       .  A
C1573      C1578   1.399       .  A
C1573      F1591   1.358       .  S
C1574      C1579   1.483       .  S
C1574      C1575   1.406       .  A
C1575      C1576   1.404       .  A
C1575      F1580   1.357       .  S
C1576      C1577   1.409       .  A
C1576      F1592   1.358       .  S
C1577      C1578   1.411       .  A
C1578      F1581   1.358       .  S
C1579      C1582   1.404       .  A
C1579      C1586   1.406       .  A
C1582      C1583   1.397       .  A
C1582      F1587   1.358       .  S
C1583      C1584   1.407       .  A
C1583      F1589   1.358       .  S
C1584      C1585   1.409       .  A
C1585      C1586   1.405       .  A
C1585      F1588   1.358       .  S
C1586      F1590   1.357       .  S
C1593      C1594   1.399       .  A
C1593      C1598   1.392       .  A
C1593      F1611   1.359       .  S
C1594      C1599   1.467       .  S
C1594      C1595   1.401       .  A
C1595      C1596   1.400       .  A
C1595      F1600   1.358       .  S
C1596      C1597   1.413       .  A
C1596      F1612   1.358       .  S
C1597      C1598   1.412       .  A
C1598      F1601   1.358       .  S
C1599      C1602   1.401       .  A
C1599      C1606   1.400       .  A
C1602      C1603   1.397       .  A
C1602      F1607   1.358       .  S
C1603      C1604   1.410       .  A
C1603      F1609   1.358       .  S
C1604      C1605   1.410       .  A
C1605      C1606   1.394       .  A
C1605      F1608   1.358       .  S
C1606      F1610   1.358       .  S
C1613      C1614   1.410       .  A
C1613      C1618   1.412       .  A
C1613      F1631   1.358       .  S
C1614      C1619   1.503       .  S
C1614      C1615   1.406       .  A
C1615      C1616   1.406       .  A
C1615      F1620   1.358       .  S
C1616      C1617   1.413       .  A
C1616      F1632   1.358       .  S
C1617      C1618   1.412       .  A
C1618      F1621   1.358       .  S
C1619      C1622   1.411       .  A
C1619      C1626   1.406       .  A
C1622      C1623   1.412       .  A
C1622      F1627   1.357       .  S
C1623      C1624   1.410       .  A
C1623      F1629   1.357       .  S
C1624      C1625   1.413       .  A
C1625      C1626   1.406       .  A
C1625      F1628   1.358       .  S
C1626      F1630   1.358       .  S
C1633      C1634   1.410       .  A
C1633      C1638   1.409       .  A
C1633      F1651   1.357       .  S
C1634      C1639   1.499       .  S
C1634      C1635   1.409       .  A
C1635      C1636   1.403       .  A
C1635      F1640   1.358       .  S
C1636      C1637   1.406       .  A
C1636      F1652   1.358       .  S
C1637      C1638   1.407       .  A
C1638      F1641   1.358       .  S
C1639      C1642   1.410       .  A
C1639      C1646   1.405       .  A
C1642      C1643   1.412       .  A
C1642      F1647   1.357       .  S
C1643      C1644   1.414       .  A
C1643      F1649   1.357       .  S
C1644      C1645   1.415       .  A
C1645      C1646   1.398       .  A
C1645      F1648   1.358       .  S
C1646      F1650   1.358       .  S
C1653      C1654   1.411       .  A
C1653      C1658   1.411       .  A
C1653      F1671   1.357       .  S
C1654      C1659   1.499       .  S
C1654      C1655   1.407       .  A
C1655      C1656   1.402       .  A
C1655      F1660   1.358       .  S
C1656      C1657   1.410       .  A
C1656      F1672   1.358       .  S
C1657      C1658   1.409       .  A
C1658      F1661   1.357       .  S
C1659      C1662   1.410       .  A
C1659      C1666   1.407       .  A
C1662      C1663   1.408       .  A
C1662      F1667   1.358       .  S
C1663      C1664   1.409       .  A
C1663      F1669   1.358       .  S
C1664      C1665   1.410       .  A
C1665      C1666   1.404       .  A
C1665      F1668   1.358       .  S
C1666      F1670   1.358       .  S
C1673      C1674   1.408       .  A
C1673      C1678   1.401       .  A
C1673      F1691   1.358       .  S
C1674      C1679   1.489       .  S
C1674      C1675   1.405       .  A
C1675      C1676   1.400       .  A
C1675      F1680   1.358       .  S
C1676      C1677   1.414       .  A
C1676      F1692   1.358       .  S
C1677      C1678   1.408       .  A
C1678      F1681   1.358       .  S
C1679      C1682   1.406       .  A
C1679      C1686   1.409       .  A
C1682      C1683   1.398       .  A
C1682      F1687   1.358       .  S
C1683      C1684   1.408       .  A
C1683      F1689   1.358       .  S
C1684      C1685   1.409       .  A
C1685      C1686   1.404       .  A
C1685      F1688   1.358       .  S
C1686      F1690   1.358       .  S
C1693      C1694   1.404       .  A
C1693      C1698   1.396       .  A
C1693      F1711   1.358       .  S
C1694      C1699   1.486       .  S
C1694      C1695   1.409       .  A
C1695      C1696   1.401       .  A
C1695      F1700   1.358       .  S
C1696      C1697   1.407       .  A
C1696      F1712   1.358       .  S
C1697      C1698   1.411       .  A
C1698      F1701   1.358       .  S
C1699      C1702   1.408       .  A
C1699      C1706   1.404       .  A
C1702      C1703   1.402       .  A
C1702      F1707   1.358       .  S
C1703      C1704   1.407       .  A
C1703      F1709   1.357       .  S
C1704      C1705   1.411       .  A
C1705      C1706   1.397       .  A
C1705      F1708   1.358       .  S
C1706      F1710   1.358       .  S
C1713      C1714   1.404       .  A
C1713      C1718   1.397       .  A
C1713      F1731   1.358       .  S
C1714      C1719   1.487       .  S
C1714      C1715   1.409       .  A
C1715      C1716   1.409       .  A
C1715      F1720   1.357       .  S
C1716      C1717   1.407       .  A
C1716      F1732   1.357       .  S
C1717      C1718   1.407       .  A
C1718      F1721   1.358       .  S
C1719      C1722   1.407       .  A
C1719      C1726   1.404       .  A
C1722      C1723   1.406       .  A
C1722      F1727   1.358       .  S
C1723      C1724   1.408       .  A
C1723      F1729   1.358       .  S
C1724      C1725   1.410       .  A
C1725      C1726   1.401       .  A
C1725      F1728   1.358       .  S
C1726      F1730   1.358       .  S
C1733      C1734   1.400       .  A
C1733      C1738   1.396       .  A
C1733      F1751   1.358       .  S
C1734      C1739   1.478       .  S
C1734      C1735   1.403       .  A
C1735      C1736   1.405       .  A
C1735      F1740   1.358       .  S
C1736      C1737   1.414       .  A
C1736      F1752   1.357       .  S
C1737      C1738   1.415       .  A
C1738      F1741   1.358       .  S
C1739      C1742   1.405       .  A
C1739      C1746   1.402       .  A
C1742      C1743   1.404       .  A
C1742      F1747   1.358       .  S
C1743      C1744   1.408       .  A
C1743      F1749   1.358       .  S
C1744      C1745   1.407       .  A
C1745      C1746   1.397       .  A
C1745      F1748   1.358       .  S
C1746      F1750   1.358       .  S
C1753      C1754   1.410       .  A
C1753      C1758   1.407       .  A
C1753      F1771   1.358       .  S
C1754      C1759   1.491       .  S
C1754      C1755   1.406       .  A
C1755      C1756   1.399       .  A
C1755      F1760   1.358       .  S
C1756      C1757   1.407       .  A
C1756      F1772   1.358       .  S
C1757      C1758   1.406       .  A
C1758      F1761   1.357       .  S
C1759      C1762   1.409       .  A
C1759      C1766   1.406       .  A
C1762      C1763   1.407       .  A
C1762      F1767   1.358       .  S
C1763      C1764   1.408       .  A
C1763      F1769   1.358       .  S
C1764      C1765   1.407       .  A
C1765      C1766   1.399       .  A
C1765      F1768   1.358       .  S
C1766      F1770   1.358       .  S
C1773      C1774   1.406       .  A
C1773      C1778   1.402       .  A
C1773      F1791   1.358       .  S
C1774      C1779   1.485       .  S
C1774      C1775   1.402       .  A
C1775      C1776   1.396       .  A
C1775      F1780   1.358       .  S
C1776      C1777   1.416       .  A
C1776      F1792   1.358       .  S
C1777      C1778   1.412       .  A
C1778      F1781   1.357       .  S
C1779      C1782   1.407       .  A
C1779      C1786   1.406       .  A
C1782      C1783   1.398       .  A
C1782      F1787   1.358       .  S
C1783      C1784   1.406       .  A
C1783      F1789   1.358       .  S
C1784      C1785   1.407       .  A
C1785      C1786   1.400       .  A
C1785      F1788   1.358       .  S
C1786      F1790   1.358       .  S
C1793      C1794   1.408       .  A
C1793      C1798   1.403       .  A
C1793      F1811   1.358       .  S
C1794      C1799   1.478       .  S
C1794      C1795   1.400       .  A
C1795      C1796   1.395       .  A
C1795      F1800   1.358       .  S
C1796      C1797   1.410       .  A
C1796      F1812   1.358       .  S
C1797      C1798   1.407       .  A
C1798      F1801   1.358       .  S
C1799      C1802   1.407       .  A
C1799      C1806   1.399       .  A
C1802      C1803   1.405   1_554  A
C1802      F1807   1.358       .  S
C1803      C1804   1.409       .  A
C1803      F1809   1.358       .  S
C1804      C1805   1.412   1_556  A
C1805      C1806   1.394       .  A
C1805      F1808   1.358   1_554  S
C1806      F1810   1.358       .  S
C1813      C1814   1.402       .  A
C1813      C1818   1.395       .  A
C1813      F1831   1.358       .  S
C1814      C1819   1.479       .  S
C1814      C1815   1.406       .  A
C1815      C1816   1.404       .  A
C1815      F1820   1.358       .  S
C1816      C1817   1.409       .  A
C1816      F1832   1.358       .  S
C1817      C1818   1.408       .  A
C1818      F1821   1.358       .  S
C1819      C1822   1.402       .  A
C1819      C1826   1.402       .  A
C1822      C1823   1.403       .  A
C1822      F1827   1.358       .  S
C1823      C1824   1.416       .  A
C1823      F1829   1.358       .  S
C1824      C1825   1.412       .  A
C1825      C1826   1.396       .  A
C1825      F1828   1.358       .  S
C1826      F1830   1.358       .  S
C1833      C1834   1.408       .  A
C1833      C1838   1.408       .  A
C1833      F1851   1.357       .  S
C1834      C1839   1.486       .  S
C1834      C1835   1.403       .  A
C1835      C1836   1.396       .  A
C1835      F1840   1.358       .  S
C1836      C1837   1.410       .  A
C1836      F1852   1.359       .  S
C1837      C1838   1.409       .  A
C1838      F1841   1.358       .  S
C1839      C1842   1.406       .  A
C1839      C1846   1.403       .  A
C1842      C1843   1.409       .  A
C1842      F1847   1.357       .  S
C1843      C1844   1.410       .  A
C1843      F1849   1.357       .  S
C1844      C1845   1.411       .  A
C1845      C1846   1.396       .  A
C1845      F1848   1.358       .  S
C1846      F1850   1.359       .  S
C1853      C1854   1.404       .  A
C1853      C1858   1.400       .  A
C1853      F1871   1.358   1_565  S
C1854      C1859   1.488   1_565  S
C1854      C1855   1.405       .  A
C1855      C1856   1.404       .  A
C1855      F1860   1.358       .  S
C1856      C1857   1.414       .  A
C1856      F1872   1.358       .  S
C1857      C1858   1.414       .  A
C1858      F1861   1.357       .  S
C1859      C1862   1.404       .  A
C1859      C1866   1.407       .  A
C1862      C1863   1.401       .  A
C1862      F1867   1.358       .  S
C1863      C1864   1.413       .  A
C1863      F1869   1.358       .  S
C1864      C1865   1.410       .  A
C1865      C1866   1.402       .  A
C1865      F1868   1.358       .  S
C1866      F1870   1.358       .  S
C1873      C1874   1.405       .  A
C1873      C1878   1.402       .  A
C1873      F1891   1.358       .  S
C1874      C1879   1.488       .  S
C1874      C1875   1.408       .  A
C1875      C1876   1.405       .  A
C1875      F1880   1.357       .  S
C1876      C1877   1.407       .  A
C1876      F1892   1.358       .  S
C1877      C1878   1.409       .  A
C1878      F1881   1.358       .  S
C1879      C1882   1.405       .  A
C1879      C1886   1.408       .  A
C1882      C1883   1.398       .  A
C1882      F1887   1.358       .  S
C1883      C1884   1.409       .  A
C1883      F1889   1.358       .  S
C1884      C1885   1.409       .  A
C1885      C1886   1.408       .  A
C1885      F1888   1.358       .  S
C1886      F1890   1.357       .  S
C1893      C1894   1.403       .  A
C1893      C1898   1.396       .  A
C1893      F1911   1.358       .  S
C1894      C1899   1.486       .  S
C1894      C1895   1.409       .  A
C1895      C1896   1.405       .  A
C1895      F1900   1.358       .  S
C1896      C1897   1.408       .  A
C1896      F1912   1.358       .  S
C1897      C1898   1.410       .  A
C1898      F1901   1.358       .  S
C1899      C1902   1.404       .  A
C1899      C1906   1.409       .  A
C1902      C1903   1.399       .  A
C1902      F1907   1.358       .  S
C1903      C1904   1.411   1_556  A
C1903      F1909   1.358   1_556  S
C1904      C1905   1.407   1_554  A
C1905      C1906   1.402       .  A
C1905      F1908   1.358   1_556  S
C1906      F1910   1.358       .  S
C1913      C1914   1.404       .  A
C1913      C1918   1.400       .  A
C1913      F1931   1.358       .  S
C1914      C1919   1.486       .  S
C1914      C1915   1.405       .  A
C1915      C1916   1.401       .  A
C1915      F1920   1.358       .  S
C1916      C1917   1.413       .  A
C1916      F1932   1.358       .  S
C1917      C1918   1.414       .  A
C1918      F1921   1.358       .  S
C1919      C1922   1.406       .  A
C1919      C1926   1.408       .  A
C1922      C1923   1.400       .  A
C1922      F1927   1.358       .  S
C1923      C1924   1.405       .  A
C1923      F1929   1.358       .  S
C1924      C1925   1.405       .  A
C1925      C1926   1.402       .  A
C1925      F1928   1.358       .  S
C1926      F1930   1.358       .  S
C1933      C1934   1.404       .  A
C1933      C1938   1.404       .  A
C1933      F1951   1.358       .  S
C1934      C1939   1.483   1_565  S
C1934      C1935   1.403       .  A
C1935      C1936   1.400       .  A
C1935      F1940   1.358       .  S
C1936      C1937   1.411       .  A
C1936      F1952   1.358       .  S
C1937      C1938   1.412       .  A
C1938      F1941   1.358       .  S
C1939      C1942   1.405       .  A
C1939      C1946   1.401       .  A
C1942      C1943   1.406       .  A
C1942      F1947   1.357       .  S
C1943      C1944   1.412       .  A
C1943      F1949   1.357       .  S
C1944      C1945   1.415       .  A
C1945      C1946   1.398       .  A
C1945      F1948   1.358       .  S
C1946      F1950   1.358       .  S
C1953      C1954   1.405       .  A
C1953      C1958   1.403       .  A
C1953      F1971   1.358       .  S
C1954      C1959   1.503       .  S
C1954      C1955   1.408       .  A
C1955      C1956   1.413       .  A
C1955      F1960   1.357       .  S
C1956      C1957   1.416       .  A
C1956      F1972   1.357       .  S
C1957      C1958   1.417       .  A
C1958      F1961   1.358       .  S
C1959      C1962   1.411       .  A
C1959      C1966   1.403       .  A
C1962      C1963   1.416       .  A
C1962      F1967   1.357       .  S
C1963      C1964   1.414       .  A
C1963      F1969   1.357       .  S
C1964      C1965   1.417       .  A
C1965      C1966   1.400       .  A
C1965      F1968   1.358       .  S
C1966      F1970   1.358       .  S
C1973      C1974   1.403       .  A
C1973      C1978   1.405       .  A
C1973      F1991   1.358       .  S
C1974      C1979   1.498   1_545  S
C1974      C1975   1.409       .  A
C1975      C1976   1.412       .  A
C1975      F1980   1.357       .  S
C1976      C1977   1.411       .  A
C1976      F1992   1.357       .  S
C1977      C1978   1.416       .  A
C1978      F1981   1.358       .  S
C1979      C1982   1.403       .  A
C1979      C1986   1.408       .  A
C1982      C1983   1.405       .  A
C1982      F1987   1.358       .  S
C1983      C1984   1.418       .  A
C1983      F1989   1.358       .  S
C1984      C1985   1.415       .  A
C1985      C1986   1.411       .  A
C1985      F1988   1.357       .  S
C1986      F1990   1.357       .  S
C1993      C1994   1.404       .  A
C1993      C1998   1.399       .  A
C1993      F2011   1.358       .  S
C1994      C1999   1.482       .  S
C1994      C1995   1.405       .  A
C1995      C1996   1.404       .  A
C1995      F2000   1.358       .  S
C1996      C1997   1.409       .  A
C1996      F2012   1.358       .  S
C1997      C1998   1.408       .  A
C1998      F2001   1.358       .  S
C1999      C2002   1.405       .  A
C1999      C2006   1.403       .  A
C2002      C2003   1.400       .  A
C2002      F2007   1.358       .  S
C2003      C2004   1.408       .  A
C2003      F2009   1.358       .  S
C2004      C2005   1.412       .  A
C2005      C2006   1.402       .  A
C2005      F2008   1.358       .  S
C2006      F2010   1.358       .  S
C2013      C2014   1.415       .  A
C2013      C2018   1.417       .  A
C2013      F2031   1.357       .  S
C2014      C2019   1.517       .  S
C2014      C2015   1.411       .  A
C2015      C2016   1.405       .  A
C2015      F2020   1.358       .  S
C2016      C2017   1.413       .  A
C2016      F2032   1.358       .  S
C2017      C2018   1.412       .  A
C2018      F2021   1.357       .  S
C2019      C2022   1.410       .  A
C2019      C2026   1.415       .  A
C2022      C2023   1.405       .  A
C2022      F2027   1.358       .  S
C2023      C2024   1.415       .  A
C2023      F2029   1.358       .  S
C2024      C2025   1.413       .  A
C2025      C2026   1.417       .  A
C2025      F2028   1.357       .  S
C2026      F2030   1.357       .  S
C2033      C2034   1.402       .  A
C2033      C2038   1.397       .  A
C2033      F2051   1.358       .  S
C2034      C2039   1.481       .  S
C2034      C2035   1.407       .  A
C2035      C2036   1.401       .  A
C2035      F2040   1.358       .  S
C2036      C2037   1.408       .  A
C2036      F2052   1.358       .  S
C2037      C2038   1.411       .  A
C2038      F2041   1.358       .  S
C2039      C2042   1.406       .  A
C2039      C2046   1.401       .  A
C2042      C2043   1.403       .  A
C2042      F2047   1.358       .  S
C2043      C2044   1.411       .  A
C2043      F2049   1.358       .  S
C2044      C2045   1.413       .  A
C2045      C2046   1.396       .  A
C2045      F2048   1.358       .  S
C2046      F2050   1.358       .  S
C2053      C2054   1.401       .  A
C2053      C2058   1.396       .  A
C2053      F2071   1.358       .  S
C2054      C2059   1.478       .  S
C2054      C2055   1.405       .  A
C2055      C2056   1.401       .  A
C2055      F2060   1.358       .  S
C2056      C2057   1.409       .  A
C2056      F2072   1.358       .  S
C2057      C2058   1.412       .  A
C2058      F2061   1.358       .  S
C2059      C2062   1.401       .  A
C2059      C2066   1.406       .  A
C2062      C2063   1.397       .  A
C2062      F2067   1.358       .  S
C2063      C2064   1.412       .  A
C2063      F2069   1.358       .  S
C2064      C2065   1.407       .  A
C2065      C2066   1.400       .  A
C2065      F2068   1.358       .  S
C2066      F2070   1.358       .  S
C2073      C2074   1.408   1_554  A
C2073      C2078   1.406       .  A
C2073      F2091   1.358       .  S
C2074      C2079   1.509   1_565  S
C2074      C2075   1.413       .  A
C2075      C2076   1.411       .  A
C2075      F2080   1.357       .  S
C2076      C2077   1.412   1_556  A
C2076      F2092   1.357       .  S
C2077      C2078   1.415       .  A
C2078      F2081   1.358       .  S
C2079      C2082   1.407       .  A
C2079      C2086   1.414   1_556  A
C2082      C2083   1.405       .  A
C2082      F2087   1.358       .  S
C2083      C2084   1.415       .  A
C2083      F2089   1.358       .  S
C2084      C2085   1.412       .  A
C2085      C2086   1.413   1_556  A
C2085      F2088   1.357   1_556  S
C2086      F2090   1.358       .  S
C2093      C2094   1.408       .  A
C2093      C2098   1.407       .  A
C2093      F2111   1.358       .  S
C2094      C2099   1.490       .  S
C2094      C2095   1.406       .  A
C2095      C2096   1.398       .  A
C2095      F2100   1.358       .  S
C2096      C2097   1.409       .  A
C2096      F2112   1.358       .  S
C2097      C2098   1.411       .  A
C2098      F2101   1.358       .  S
C2099      C2102   1.407       .  A
C2099      C2106   1.407       .  A
C2102      C2103   1.404       .  A
C2102      F2107   1.357       .  S
C2103      C2104   1.410       .  A
C2103      F2109   1.358       .  S
C2104      C2105   1.408       .  A
C2105      C2106   1.400       .  A
C2105      F2108   1.358       .  S
C2106      F2110   1.358       .  S
C2113      C2114   1.406       .  A
C2113      C2118   1.407       .  A
C2113      F2131   1.358       .  S
C2114      C2119   1.483       .  S
C2114      C2115   1.401       .  A
C2115      C2116   1.395       .  A
C2115      F2120   1.358       .  S
C2116      C2117   1.413       .  A
C2116      F2132   1.358       .  S
C2117      C2118   1.412       .  A
C2118      F2121   1.358       .  S
C2119      C2122   1.406       .  A
C2119      C2126   1.404       .  A
C2122      C2123   1.401       .  A
C2122      F2127   1.358       .  S
C2123      C2124   1.407       .  A
C2123      F2129   1.358       .  S
C2124      C2125   1.410       .  A
C2125      C2126   1.402       .  A
C2125      F2128   1.358       .  S
C2126      F2130   1.358       .  S
C2133      C2134   1.411       .  A
C2133      C2138   1.412       .  A
C2133      F2151   1.357       .  S
C2134      C2139   1.498       .  S
C2134      C2135   1.405       .  A
C2135      C2136   1.402       .  A
C2135      F2140   1.358       .  S
C2136      C2137   1.409       .  A
C2136      F2152   1.359       .  S
C2137      C2138   1.407       .  A
C2138      F2141   1.357       .  S
C2139      C2142   1.409       .  A
C2139      C2146   1.407       .  A
C2142      C2143   1.408       .  A
C2142      F2147   1.358       .  S
C2143      C2144   1.409       .  A
C2143      F2149   1.358       .  S
C2144      C2145   1.409       .  A
C2145      C2146   1.406       .  A
C2145      F2148   1.358       .  S
C2146      F2150   1.358       .  S
C2153      C2154   1.405       .  A
C2153      C2158   1.402       .  A
C2153      F2171   1.358       .  S
C2154      C2159   1.480       .  S
C2154      C2155   1.403       .  A
C2155      C2156   1.394       .  A
C2155      F2160   1.358       .  S
C2156      C2157   1.410       .  A
C2156      F2172   1.358       .  S
C2157      C2158   1.410       .  A
C2158      F2161   1.358       .  S
C2159      C2162   1.403       .  A
C2159      C2166   1.405       .  A
C2162      C2163   1.395       .  A
C2162      F2167   1.358       .  S
C2163      C2164   1.410       .  A
C2163      F2169   1.358       .  S
C2164      C2165   1.410       .  A
C2165      C2166   1.402       .  A
C2165      F2168   1.358       .  S
C2166      F2170   1.358       .  S
C2173      C2174   1.410       .  A
C2173      C2178   1.410       .  A
C2173      F2191   1.357       .  S
C2174      C2179   1.493       .  S
C2174      C2175   1.405       .  A
C2175      C2176   1.400       .  A
C2175      F2180   1.358       .  S
C2176      C2177   1.409       .  A
C2176      F2192   1.358       .  S
C2177      C2178   1.408       .  A
C2178      F2181   1.357       .  S
C2179      C2182   1.406       .  A
C2179      C2186   1.409       .  A
C2182      C2183   1.402       .  A
C2182      F2187   1.358       .  S
C2183      C2184   1.409       .  A
C2183      F2189   1.358       .  S
C2184      C2185   1.408       .  A
C2185      C2186   1.407       .  A
C2185      F2188   1.358       .  S
C2186      F2190   1.358       .  S
C2193      C2194   1.408       .  A
C2193      C2198   1.403       .  A
C2193      F2211   1.358       .  S
C2194      C2199   1.484       .  S
C2194      C2195   1.401       .  A
C2195      C2196   1.395       .  A
C2195      F2200   1.358       .  S
C2196      C2197   1.415       .  A
C2196      F2212   1.358       .  S
C2197      C2198   1.410       .  A
C2198      F2201   1.358       .  S
C2199      C2202   1.404       .  A
C2199      C2206   1.408       .  A
C2202      C2203   1.398       .  A
C2202      F2207   1.358       .  S
C2203      C2204   1.408       .  A
C2203      F2209   1.358       .  S
C2204      C2205   1.406       .  A
C2205      C2206   1.400       .  A
C2205      F2208   1.358       .  S
C2206      F2210   1.358       .  S
C2213      C2214   1.406       .  A
C2213      C2218   1.403       .  A
C2213      F2231   1.358       .  S
C2214      C2219   1.482       .  S
C2214      C2215   1.401       .  A
C2215      C2216   1.398       .  A
C2215      F2220   1.358       .  S
C2216      C2217   1.414       .  A
C2216      F2232   1.358       .  S
C2217      C2218   1.411       .  A
C2218      F2221   1.358       .  S
C2219      C2222   1.403       .  A
C2219      C2226   1.407       .  A
C2222      C2223   1.399   1_554  A
C2222      F2227   1.358       .  S
C2223      C2224   1.410       .  A
C2223      F2229   1.358       .  S
C2224      C2225   1.405       .  A
C2225      C2226   1.401   1_556  A
C2225      F2228   1.358       .  S
C2226      F2230   1.358       .  S
C2233      C2234   1.405       .  A
C2233      C2238   1.397       .  A
C2233      F2251   1.358       .  S
C2234      C2239   1.486   1_455  S
C2234      C2235   1.406       .  A
C2235      C2236   1.403       .  A
C2235      F2240   1.357       .  S
C2236      C2237   1.409       .  A
C2236      F2252   1.358       .  S
C2237      C2238   1.409       .  A
C2238      F2241   1.358   1_556  S
C2239      C2242   1.405       .  A
C2239      C2246   1.406       .  A
C2242      C2243   1.397       .  A
C2242      F2247   1.358       .  S
C2243      C2244   1.410       .  A
C2243      F2249   1.358       .  S
C2244      C2245   1.412       .  A
C2245      C2246   1.404       .  A
C2245      F2248   1.358       .  S
C2246      F2250   1.358       .  S
C2253      C2254   1.408       .  A
C2253      C2258   1.411       .  A
C2253      F2271   1.357       .  S
C2254      C2259   1.492       .  S
C2254      C2255   1.404       .  A
C2255      C2256   1.399       .  A
C2255      F2260   1.358       .  S
C2256      C2257   1.410       .  A
C2256      F2272   1.358       .  S
C2257      C2258   1.411       .  A
C2258      F2261   1.357       .  S
C2259      C2262   1.403       .  A
C2259      C2266   1.409       .  A
C2262      C2263   1.396       .  A
C2262      F2267   1.358       .  S
C2263      C2264   1.410       .  A
C2263      F2269   1.358       .  S
C2264      C2265   1.412       .  A
C2265      C2266   1.413       .  A
C2265      F2268   1.357       .  S
C2266      F2270   1.357       .  S
C2273      C2274   1.402       .  A
C2273      C2278   1.398       .  A
C2273      F2291   1.358       .  S
C2274      C2279   1.482       .  S
C2274      C2275   1.405       .  A
C2275      C2276   1.405       .  A
C2275      F2280   1.357       .  S
C2276      C2277   1.409       .  A
C2276      F2292   1.357       .  S
C2277      C2278   1.412       .  A
C2278      F2281   1.358       .  S
C2279      C2282   1.401       .  A
C2279      C2286   1.405       .  A
C2282      C2283   1.397       .  A
C2282      F2287   1.358       .  S
C2283      C2284   1.413       .  A
C2283      F2289   1.358       .  S
C2284      C2285   1.413       .  A
C2285      C2286   1.406       .  A
C2285      F2288   1.358       .  S
C2286      F2290   1.358       .  S
C2293      C2294   1.404       .  A
C2293      C2298   1.395       .  A
C2293      F2311   1.358       .  S
C2294      C2299   1.476   1_655  S
C2294      C2295   1.404       .  A
C2295      C2296   1.401       .  A
C2295      F2300   1.357       .  S
C2296      C2297   1.408       .  A
C2296      F2312   1.358       .  S
C2297      C2298   1.405       .  A
C2298      F2301   1.358       .  S
C2299      C2302   1.401       .  A
C2299      C2306   1.403       .  A
C2302      C2303   1.393       .  A
C2302      F2307   1.359       .  S
C2303      C2304   1.411       .  A
C2303      F2309   1.358       .  S
C2304      C2305   1.411       .  A
C2305      C2306   1.404       .  A
C2305      F2308   1.357       .  S
C2306      F2310   1.358       .  S
C2313      C2314   1.406       .  A
C2313      C2318   1.401       .  A
C2313      F2331   1.358       .  S
C2314      C2319   1.506       .  S
C2314      C2315   1.411       .  A
C2315      C2316   1.417       .  A
C2315      F2320   1.357       .  S
C2316      C2317   1.415       .  A
C2316      F2332   1.357       .  S
C2317      C2318   1.416       .  A
C2318      F2321   1.358       .  S
C2319      C2322   1.405       .  A
C2319      C2326   1.413       .  A
C2322      C2323   1.400       .  A
C2322      F2327   1.358       .  S
C2323      C2324   1.415       .  A
C2323      F2329   1.358       .  S
C2324      C2325   1.412       .  A
C2325      C2326   1.418       .  A
C2325      F2328   1.357       .  S
C2326      F2330   1.357       .  S
C2333      C2334   1.406       .  A
C2333      C2338   1.401       .  A
C2333      F2351   1.358       .  S
C2334      C2339   1.475       .  S
C2334      C2335   1.401       .  A
C2335      C2336   1.394       .  A
C2335      F2340   1.358       .  S
C2336      C2337   1.409       .  A
C2336      F2352   1.358       .  S
C2337      C2338   1.407       .  A
C2338      F2341   1.358       .  S
C2339      C2342   1.399       .  A
C2339      C2346   1.404       .  A
C2342      C2343   1.395       .  A
C2342      F2347   1.358       .  S
C2343      C2344   1.415       .  A
C2343      F2349   1.358       .  S
C2344      C2345   1.411       .  A
C2345      C2346   1.400       .  A
C2345      F2348   1.358       .  S
C2346      F2350   1.358       .  S
C2353      C2354   1.406       .  A
C2353      C2358   1.406       .  A
C2353      F2371   1.358       .  S
C2354      C2359   1.483       .  S
C2354      C2355   1.399       .  A
C2355      C2356   1.395       .  A
C2355      F2360   1.358       .  S
C2356      C2357   1.417       .  A
C2356      F2372   1.358       .  S
C2357      C2358   1.413       .  A
C2358      F2361   1.358       .  S
C2359      C2362   1.408       .  A
C2359      C2366   1.404       .  A
C2362      C2363   1.402       .  A
C2362      F2367   1.358       .  S
C2363      C2364   1.406       .  A
C2363      F2369   1.358       .  S
C2364      C2365   1.406       .  A
C2365      C2366   1.399       .  A
C2365      F2368   1.358       .  S
C2366      F2370   1.358       .  S
C2373      C2374   1.403       .  A
C2373      C2378   1.402       .  A
C2373      F2391   1.358       .  S
C2374      C2379   1.479       .  S
C2374      C2375   1.404       .  A
C2375      C2376   1.401       .  A
C2375      F2380   1.358       .  S
C2376      C2377   1.406       .  A
C2376      F2392   1.358       .  S
C2377      C2378   1.409       .  A
C2378      F2381   1.358       .  S
C2379      C2382   1.403       .  A
C2379      C2386   1.403       .  A
C2382      C2383   1.399       .  A
C2382      F2387   1.358       .  S
C2383      C2384   1.408       .  A
C2383      F2389   1.358       .  S
C2384      C2385   1.410       .  A
C2385      C2386   1.402       .  A
C2385      F2388   1.358       .  S
C2386      F2390   1.357       .  S
C2393      C2394   1.406       .  A
C2393      C2398   1.400       .  A
C2393      F2411   1.358       .  S
C2394      C2399   1.492       .  S
C2394      C2395   1.408       .  A
C2395      C2396   1.409       .  A
C2395      F2400   1.357       .  S
C2396      C2397   1.410       .  A
C2396      F2412   1.358       .  S
C2397      C2398   1.407       .  A
C2398      F2401   1.358       .  S
C2399      C2402   1.408       .  A
C2399      C2406   1.403       .  A
C2402      C2403   1.412       .  A
C2402      F2407   1.357       .  S
C2403      C2404   1.413       .  A
C2403      F2409   1.357       .  S
C2404      C2405   1.414       .  A
C2405      C2406   1.398       .  A
C2405      F2408   1.358       .  S
C2406      F2410   1.358       .  S
C2413      C2414   1.404       .  A
C2413      C2418   1.397       .  A
C2413      F2431   1.358       .  S
C2414      C2419   1.492   1_655  S
C2414      C2415   1.408       .  A
C2415      C2416   1.409       .  A
C2415      F2420   1.357       .  S
C2416      C2417   1.413       .  A
C2416      F2432   1.357       .  S
C2417      C2418   1.413       .  A
C2418      F2421   1.358       .  S
C2419      C2422   1.408       .  A
C2419      C2426   1.406       .  A
C2422      C2423   1.407       .  A
C2422      F2427   1.357       .  S
C2423      C2424   1.410       .  A
C2423      F2429   1.358       .  S
C2424      C2425   1.408       .  A
C2425      C2426   1.398       .  A
C2425      F2428   1.358       .  S
C2426      F2430   1.358       .  S
C2433      C2434   1.408       .  A
C2433      C2438   1.407       .  A
C2433      F2451   1.358       .  S
C2434      C2439   1.506   1_545  S
C2434      C2435   1.410       .  A
C2435      C2436   1.410       .  A
C2435      F2440   1.358       .  S
C2436      C2437   1.414       .  A
C2436      F2452   1.358       .  S
C2437      C2438   1.415       .  A
C2438      F2441   1.357       .  S
C2439      C2442   1.413       .  A
C2439      C2446   1.408       .  A
C2442      C2443   1.411       .  A
C2442      F2447   1.357       .  S
C2443      C2444   1.408       .  A
C2443      F2449   1.357       .  S
C2444      C2445   1.411       .  A
C2445      C2446   1.404       .  A
C2445      F2448   1.358       .  S
C2446      F2450   1.358   1_565  S
C2453      C2454   1.407       .  A
C2453      C2458   1.394       .  A
C2453      F2471   1.358       .  S
C2454      C2459   1.494       .  S
C2454      C2455   1.410       .  A
C2455      C2456   1.407       .  A
C2455      F2460   1.358       .  S
C2456      C2457   1.411       .  A
C2456      F2472   1.358       .  S
C2457      C2458   1.410       .  A
C2458      F2461   1.358       .  S
C2459      C2462   1.411       .  A
C2459      C2466   1.410       .  A
C2462      C2463   1.401       .  A
C2462      F2467   1.358       .  S
C2463      C2464   1.403       .  A
C2463      F2469   1.358       .  S
C2464      C2465   1.402       .  A
C2465      C2466   1.401       .  A
C2465      F2468   1.358       .  S
C2466      F2470   1.357       .  S
C2473      C2474   1.406       .  A
C2473      C2478   1.406   1_554  A
C2473      F2491   1.357   1_554  S
C2474      C2479   1.483   1_655  S
C2474      C2475   1.402       .  A
C2475      C2476   1.398       .  A
C2475      F2480   1.358       .  S
C2476      C2477   1.411       .  A
C2476      F2492   1.358       .  S
C2477      C2478   1.410   1_554  A
C2478      F2481   1.358       .  S
C2479      C2482   1.406       .  A
C2479      C2486   1.403   1_554  A
C2482      C2483   1.406       .  A
C2482      F2487   1.358       .  S
C2483      C2484   1.410       .  A
C2483      F2489   1.358       .  S
C2484      C2485   1.408   1_554  A
C2485      C2486   1.399       .  A
C2485      F2488   1.358       .  S
C2486      F2490   1.358       .  S
C2493      C2494   1.403       .  A
C2493      C2498   1.402       .  A
C2493      F2511   1.358       .  S
C2494      C2499   1.482       .  S
C2494      C2495   1.405       .  A
C2495      C2496   1.398       .  A
C2495      F2500   1.358       .  S
C2496      C2497   1.410       .  A
C2496      F2512   1.358       .  S
C2497      C2498   1.413       .  A
C2498      F2501   1.358       .  S
C2499      C2502   1.400       .  A
C2499      C2506   1.407       .  A
C2502      C2503   1.395       .  A
C2502      F2507   1.358       .  S
C2503      C2504   1.415       .  A
C2503      F2509   1.358       .  S
C2504      C2505   1.411       .  A
C2505      C2506   1.406       .  A
C2505      F2508   1.357       .  S
C2506      F2510   1.358       .  S
C2513      C2514   1.404       .  A
C2513      C2518   1.399       .  A
C2513      F2531   1.358       .  S
C2514      C2519   1.487       .  S
C2514      C2515   1.408       .  A
C2515      C2516   1.401       .  A
C2515      F2520   1.358       .  S
C2516      C2517   1.408       .  A
C2516      F2532   1.358       .  S
C2517      C2518   1.413       .  A
C2518      F2521   1.358       .  S
C2519      C2522   1.408       .  A
C2519      C2526   1.404       .  A
C2522      C2523   1.404       .  A
C2522      F2527   1.358       .  S
C2523      C2524   1.410       .  A
C2523      F2529   1.358       .  S
C2524      C2525   1.411       .  A
C2525      C2526   1.397       .  A
C2525      F2528   1.358       .  S
C2526      F2530   1.358       .  S
C2533      C2534   1.404       .  A
C2533      C2538   1.406       .  A
C2533      F2551   1.357   1_556  S
C2534      C2539   1.484   1_545  S
C2534      C2535   1.401       .  A
C2535      C2536   1.400       .  A
C2535      F2540   1.358       .  S
C2536      C2537   1.414       .  A
C2536      F2552   1.358       .  S
C2537      C2538   1.414       .  A
C2538      F2541   1.358       .  S
C2539      C2542   1.401   1_556  A
C2539      C2546   1.405       .  A
C2542      C2543   1.400       .  A
C2542      F2547   1.358   1_565  S
C2543      C2544   1.416       .  A
C2543      F2549   1.358       .  S
C2544      C2545   1.411   1_554  A
C2545      C2546   1.405       .  A
C2545      F2548   1.357       .  S
C2546      F2550   1.357       .  S
C2553      C2554   1.407       .  A
C2553      C2558   1.399       .  A
C2553      F2571   1.358       .  S
C2554      C2559   1.491       .  S
C2554      C2555   1.410       .  A
C2555      C2556   1.406       .  A
C2555      F2560   1.357       .  S
C2556      C2557   1.405       .  A
C2556      F2572   1.357       .  S
C2557      C2558   1.405       .  A
C2558      F2561   1.358       .  S
C2559      C2562   1.409       .  A
C2559      C2566   1.406       .  A
C2562      C2563   1.406       .  A
C2562      F2567   1.358       .  S
C2563      C2564   1.407       .  A
C2563      F2569   1.357       .  S
C2564      C2565   1.408       .  A
C2565      C2566   1.399       .  A
C2565      F2568   1.358       .  S
C2566      F2570   1.358       .  S
C2573      C2574   1.406       .  A
C2573      C2578   1.403       .  A
C2573      F2591   1.357       .  S
C2574      C2579   1.486       .  S
C2574      C2575   1.406       .  A
C2575      C2576   1.397       .  A
C2575      F2580   1.358       .  S
C2576      C2577   1.411       .  A
C2576      F2592   1.358       .  S
C2577      C2578   1.410       .  A
C2578      F2581   1.358       .  S
C2579      C2582   1.406       .  A
C2579      C2586   1.403       .  A
C2582      C2583   1.404       .  A
C2582      F2587   1.357       .  S
C2583      C2584   1.412       .  A
C2583      F2589   1.357       .  S
C2584      C2585   1.415       .  A
C2585      C2586   1.396       .  A
C2585      F2588   1.358       .  S
C2586      F2590   1.359       .  S
C2593      C2594   1.402       .  A
C2593      C2598   1.402       .  A
C2593      F2611   1.358   1_565  S
C2594      C2599   1.489   1_565  S
C2594      C2595   1.405       .  A
C2595      C2596   1.407       .  A
C2595      F2600   1.357       .  S
C2596      C2597   1.414       .  A
C2596      F2612   1.357       .  S
C2597      C2598   1.417       .  A
C2598      F2601   1.358       .  S
C2599      C2602   1.404       .  A
C2599      C2606   1.402       .  A
C2602      C2603   1.406       .  A
C2602      F2607   1.358       .  S
C2603      C2604   1.415       .  A
C2603      F2609   1.357       .  S
C2604      C2605   1.416       .  A
C2605      C2606   1.404       .  A
C2605      F2608   1.357       .  S
C2606      F2610   1.358       .  S
C2613      C2614   1.402       .  A
C2613      C2618   1.395       .  A
C2613      F2631   1.358       .  S
C2614      C2619   1.480       .  S
C2614      C2615   1.404       .  A
C2615      C2616   1.404       .  A
C2615      F2620   1.358       .  S
C2616      C2617   1.414       .  A
C2616      F2632   1.358       .  S
C2617      C2618   1.411       .  A
C2618      F2621   1.358       .  S
C2619      C2622   1.404       .  A
C2619      C2626   1.405       .  A
C2622      C2623   1.402       .  A
C2622      F2627   1.358       .  S
C2623      C2624   1.411       .  A
C2623      F2629   1.358       .  S
C2624      C2625   1.407       .  A
C2625      C2626   1.398       .  A
C2625      F2628   1.358       .  S
C2626      F2630   1.358       .  S
C2633      C2634   1.405       .  A
C2633      C2638   1.401       .  A
C2633      F2651   1.358       .  S
C2634      C2639   1.498       .  S
C2634      C2635   1.410       .  A
C2635      C2636   1.411       .  A
C2635      F2640   1.357       .  S
C2636      C2637   1.411       .  A
C2636      F2652   1.357       .  S
C2637      C2638   1.414       .  A
C2638      F2641   1.358       .  S
C2639      C2642   1.411       .  A
C2639      C2646   1.408       .  A
C2642      C2643   1.408       .  A
C2642      F2647   1.357       .  S
C2643      C2644   1.406       .  A
C2643      F2649   1.358       .  S
C2644      C2645   1.407       .  A
C2645      C2646   1.404       .  A
C2645      F2648   1.358       .  S
C2646      F2650   1.358       .  S
C2653      C2654   1.403       .  A
C2653      C2658   1.396       .  A
C2653      F2671   1.358       .  S
C2654      C2659   1.474       .  S
C2654      C2655   1.404       .  A
C2655      C2656   1.401       .  A
C2655      F2660   1.358       .  S
C2656      C2657   1.406       .  A
C2656      F2672   1.358       .  S
C2657      C2658   1.405       .  A
C2658      F2661   1.358       .  S
C2659      C2662   1.403       .  A
C2659      C2666   1.401       .  A
C2662      C2663   1.403       .  A
C2662      F2667   1.358       .  S
C2663      C2664   1.412       .  A
C2663      F2669   1.358       .  S
C2664      C2665   1.410       .  A
C2665      C2666   1.394       .  A
C2665      F2668   1.358       .  S
C2666      F2670   1.358       .  S
C2673      C2674   1.402       .  A
C2673      C2678   1.396       .  A
C2673      F2691   1.358       .  S
C2674      C2679   1.475       .  S
C2674      C2675   1.405       .  A
C2675      C2676   1.400       .  A
C2675      F2680   1.358       .  S
C2676      C2677   1.408       .  A
C2676      F2692   1.358       .  S
C2677      C2678   1.407       .  A
C2678      F2681   1.358       .  S
C2679      C2682   1.403       .  A
C2679      C2686   1.399       .  A
C2682      C2683   1.400       .  A
C2682      F2687   1.358       .  S
C2683      C2684   1.412       .  A
C2683      F2689   1.358       .  S
C2684      C2685   1.415       .  A
C2685      C2686   1.397       .  A
C2685      F2688   1.358       .  S
C2686      F2690   1.358       .  S
C2693      C2694   1.401       .  A
C2693      C2698   1.396       .  A
C2693      F2711   1.358       .  S
C2694      C2699   1.480       .  S
C2694      C2695   1.406       .  A
C2695      C2696   1.400       .  A
C2695      F2700   1.358       .  S
C2696      C2697   1.410       .  A
C2696      F2712   1.358       .  S
C2697      C2698   1.414       .  A
C2698      F2701   1.358       .  S
C2699      C2702   1.401       .  A
C2699      C2706   1.408       .  A
C2702      C2703   1.393       .  A
C2702      F2707   1.358       .  S
C2703      C2704   1.412       .  A
C2703      F2709   1.358       .  S
C2704      C2705   1.408       .  A
C2705      C2706   1.403       .  A
C2705      F2708   1.358       .  S
C2706      F2710   1.358       .  S
C2713      C2714   1.404       .  A
C2713      C2718   1.403       .  A
C2713      F2731   1.358   1_565  S
C2714      C2719   1.490   1_565  S
C2714      C2715   1.405       .  A
C2715      C2716   1.406       .  A
C2715      F2720   1.358       .  S
C2716      C2717   1.414       .  A
C2716      F2732   1.357       .  S
C2717      C2718   1.415       .  A
C2718      F2721   1.358       .  S
C2719      C2722   1.407       .  A
C2719      C2726   1.404       .  A
C2722      C2723   1.406       .  A
C2722      F2727   1.357       .  S
C2723      C2724   1.409       .  A
C2723      F2729   1.357       .  S
C2724      C2725   1.412       .  A
C2725      C2726   1.403       .  A
C2725      F2728   1.358       .  S
C2726      F2730   1.358       .  S
C2733      C2734   1.403       .  A
C2733      C2738   1.394       .  A
C2733      F2751   1.358       .  S
C2734      C2739   1.479       .  S
C2734      C2735   1.405       .  A
C2735      C2736   1.404       .  A
C2735      F2740   1.358       .  S
C2736      C2737   1.410       .  A
C2736      F2752   1.358       .  S
C2737      C2738   1.408       .  A
C2738      F2741   1.358       .  S
C2739      C2742   1.401       .  A
C2739      C2746   1.404       .  A
C2742      C2743   1.394       .  A
C2742      F2747   1.359       .  S
C2743      C2744   1.414       .  A
C2743      F2749   1.358       .  S
C2744      C2745   1.412       .  A
C2745      C2746   1.403       .  A
C2745      F2748   1.358       .  S
C2746      F2750   1.357       .  S
