geometry optimzed in LAMMPS
_audit_creation_date              2020-12-01 
_audit_creation_method            'lammps2cif' 
_symmetry_space_group_name_H-M    'P1' 
_symmetry_Int_Tables_number       1 
_symmetry_cell_setting            triclinic 
loop_ 
_symmetry_equiv_pos_as_xyz 
  x,y,z 
_cell_length_a                    47.75394145 
_cell_length_b                    47.876700703593954 
_cell_length_c                    47.808059086573515 
_cell_angle_alpha                 89.8804631076651 
_cell_angle_beta                  89.8730237226383 
_cell_angle_gamma                 89.79411687158078 
loop_ 
_atom_site_label 
_atom_site_type_symbol 
_atom_site_fract_x 
_atom_site_fract_y 
_atom_site_fract_z 
_atom_site_charge 
O1          O  0.18165157  0.61758234  0.48919821    -0.86000
O2          O  0.22122319  0.62697241  0.53027520    -0.83000
C3          C  0.21549566  0.65210919  0.53537209     0.97500
O4          O  0.19418484  0.65832642  0.54998759    -0.83100
O5          O  0.13912262  0.65277515  0.57072637    -0.85700
C6          C  0.12219453  0.65697304  0.55053700     1.02000
O7          O  0.12180080  0.64019947  0.53025418    -0.78500
O8          O  0.13918517  0.60053008  0.49347369    -0.78600
C9          C  0.15783088  0.61247758  0.47911126     1.02000
O10         O  0.17590056  0.56157600  0.50875463    -0.86000
O11         O  0.20987892  0.57374175  0.55282722    -0.83000
C12         C  0.21902741  0.58454998  0.57496438     0.97500
O13         O  0.21104535  0.60881283  0.58241631    -0.83100
O14         O  0.15667268  0.60027016  0.59784980    -0.85700
C15         C  0.13192934  0.59189565  0.59422841     1.02000
O16         O  0.11830400  0.59929236  0.57300629    -0.78500
O17         O  0.13978444  0.55932010  0.53678272    -0.78600
C18         C  0.15686163  0.54745161  0.52035576     1.01900
Cr19       Cr  0.19503326  0.59607485  0.52191362     1.93700
Cr20       Cr  0.17467048  0.62890646  0.57315580     1.93200
Cr21       Cr  0.13245021  0.60042127  0.53413831     1.39100
O22         O  0.16733548  0.60869162  0.54303827    -1.23700
O23         O  0.12595078  0.55930229  0.26861495    -0.86000
O24         O  0.12783896  0.52599180  0.22086236    -0.83000
C25         C  0.10218899  0.52965201  0.21662145     0.97500
O26         O  0.09409141  0.55243467  0.20570441    -0.83100
O27         O  0.09490460  0.60987244  0.19087213    -0.85700
C28         C  0.08888030  0.62595250  0.21110846     1.02000
O29         O  0.10335396  0.62535828  0.23309906    -0.78500
O30         O  0.13756298  0.60372502  0.27277665    -0.78600
C31         C  0.12649412  0.58173180  0.28248687     1.02000
O32         O  0.18225239  0.57364300  0.25973916    -0.86000
O33         O  0.18082399  0.54769143  0.20819546    -0.83000
C34         C  0.17318205  0.54065915  0.18395449     0.97500
O35         O  0.14838972  0.54602815  0.17557946    -0.83100
O36         O  0.14956843  0.60246749  0.16671133    -0.85700
C37         C  0.15596944  0.62700586  0.17399696     1.02000
O38         O  0.14995300  0.63630595  0.19790384    -0.78500
O39         O  0.18551432  0.61262193  0.23664328    -0.78600
C40         C  0.19627149  0.59470808  0.25280859     1.01900
Cr41       Cr  0.15309630  0.55393062  0.23785728     1.93700
Cr42       Cr  0.12261706  0.57788098  0.18712419     1.93200
Cr43       Cr  0.14383552  0.61685866  0.23396623     1.39100
O44         O  0.13969485  0.58324264  0.21951994    -1.23700
O45         O  0.26935655  0.10811068  0.56989279    -0.86000
O46         O  0.22062179  0.11358138  0.53973640    -0.83000
C47         C  0.21421488  0.08852407  0.54402871     0.97500
O48         O  0.20296270  0.08172712  0.56715357    -0.83100
O49         O  0.19212210  0.08378845  0.62543292    -0.85700
C50         C  0.21333073  0.07418580  0.63843537     1.02000
O51         O  0.23667472  0.08609369  0.63592933    -0.78500
O52         O  0.27742919  0.11880873  0.61390148    -0.78600
C53         C  0.28470128  0.10716361  0.59125474     1.02000
O54         O  0.26529645  0.16505110  0.58612756    -0.86000
O55         O  0.21316751  0.16759705  0.56171749    -0.83000
C56         C  0.18843862  0.16164010  0.55484876     0.97500
O57         O  0.17792569  0.13816140  0.56176372    -0.83100
O58         O  0.17343401  0.14171188  0.61908050    -0.85700
C59         C  0.18342852  0.14673942  0.64308244     1.02000
O60         O  0.20517480  0.13411151  0.65117393    -0.78500
O61         O  0.24429698  0.16794765  0.62650909    -0.78600
C62         C  0.25952896  0.17875364  0.60786866     1.01900
Cr63       Cr  0.24077592  0.13762342  0.56664974     1.93700
Cr64       Cr  0.18877721  0.11192138  0.59351126     1.93200
Cr65       Cr  0.23973404  0.12671293  0.62945829     1.39100
O66         O  0.22304398  0.12523431  0.59670902    -1.23700
O67         O  0.49079877  0.15958002  0.61761800    -0.86000
O68         O  0.52978678  0.20201256  0.62163748    -0.83000
C69         C  0.53698189  0.20153582  0.64699649     0.97500
O70         O  0.55242793  0.18183843  0.65614396    -0.83100
O71         O  0.57703112  0.12739864  0.65714322    -0.85700
C72         C  0.55833420  0.11006061  0.66473309     1.02000
O73         O  0.53700587  0.10663102  0.64964619    -0.78500
O74         O  0.49796605  0.11507162  0.60874324    -0.78600
C75         C  0.48194190  0.13483798  0.61575001     1.02000
O76         O  0.51102993  0.14699111  0.56354007    -0.86000
O77         O  0.55319062  0.18515935  0.56972779    -0.83000
C78         C  0.57459127  0.19721278  0.57917362     0.97500
O79         O  0.58208130  0.19310636  0.60429775    -0.83100
O80         O  0.60045536  0.13891883  0.60142916    -0.85700
C81         C  0.59842998  0.11300233  0.59698435     1.02000
O82         O  0.57885380  0.09928928  0.60794804    -0.78500
O83         O  0.53966336  0.11134976  0.56653263    -0.78600
C84         C  0.52236964  0.12585138  0.55262521     1.01900
Cr85       Cr  0.52307655  0.17154612  0.59456296     1.93700
Cr86       Cr  0.57584422  0.15928582  0.62878469     1.93200
Cr87       Cr  0.53896221  0.11094921  0.60845945     1.39100
O88         O  0.54573634  0.14724781  0.61090244    -1.23700
O89         O  0.63513973  0.48360538  0.18354977    -0.86000
O90         O  0.63484718  0.53060637  0.21608116    -0.83000
C91         C  0.66029715  0.53678883  0.21292124     0.97500
O92         O  0.66852095  0.54797267  0.19024196    -0.83100
O93         O  0.66761223  0.56237365  0.13236764    -0.85700
C94         C  0.67615962  0.54165366  0.11810229     1.02000
O95         O  0.66326921  0.51876417  0.11964836    -0.78500
O96         O  0.62709666  0.47839495  0.13855604    -0.78600
C97         C  0.63631197  0.46905188  0.16162420     1.02000
O98         O  0.57916874  0.49470033  0.16667422    -0.86000
O99         O  0.58155055  0.54552931  0.19371376    -0.83000
C100        C  0.59006378  0.56884693  0.20240674     0.97500
O101        O  0.61492041  0.57661754  0.19701541    -0.83100
O102        O  0.61142649  0.58380653  0.14000470    -0.85700
C103        C  0.60647993  0.57611396  0.11522232     1.02000
O104        O  0.61718793  0.55406509  0.10543001    -0.78500
O105        O  0.58034999  0.51537726  0.12606557    -0.78600
C106        C  0.56726075  0.50122212  0.14407315     1.01900
Cr107      Cr  0.60879632  0.51498670  0.18773643     1.93700
Cr108      Cr  0.63982332  0.56537987  0.16447159     1.93200
Cr109      Cr  0.62211032  0.51770397  0.12508695     1.39100
O110        O  0.62382028  0.53256611  0.15893417    -1.23700
O111        O  0.59828634  0.26045049  0.17266548    -0.86000
O112        O  0.56604579  0.23717118  0.13188704    -0.83000
C113        C  0.55490555  0.21988818  0.11569426     0.97500
O114        O  0.56149183  0.19413986  0.11738628    -0.83100
O115        O  0.62022722  0.19011294  0.10663299    -0.85700
C116        C  0.64624129  0.19319345  0.11096600     1.02000
O117        O  0.65533076  0.19577099  0.13576278    -0.78500
O118        O  0.63817098  0.24766825  0.15362728    -0.78600
C119        C  0.62199099  0.26652060  0.16251099     1.02000
O120        O  0.58109874  0.21834541  0.21072159    -0.86000
O121        O  0.54533396  0.19631332  0.17148451    -0.83000
C122        C  0.54944905  0.17050156  0.17560388     0.97500
O123        O  0.57083418  0.15864707  0.16560052    -0.83100
O124        O  0.62611007  0.15063467  0.15176077    -0.85700
C125        C  0.63682302  0.15149822  0.17600328     1.02000
O126        O  0.63702008  0.17391890  0.18950783    -0.78500
O127        O  0.62614493  0.22638914  0.20799142    -0.78600
C128        C  0.60369854  0.22565382  0.22205093     1.01900
Cr129      Cr  0.57470262  0.22631345  0.17058297     1.93700
Cr130      Cr  0.59505966  0.17560556  0.13673654     1.93200
Cr131      Cr  0.63663367  0.21023555  0.17073574     1.39100
O132        O  0.60218713  0.20428975  0.15910675    -1.23700
O133        O  0.67532403  0.87875984  0.51311936    -0.86000
O134        O  0.71516906  0.87544312  0.47082162    -0.83000
C135        C  0.71152856  0.85006732  0.46576064     0.97500
O136        O  0.68990868  0.84250027  0.45240073    -0.83100
O137        O  0.63380318  0.84468445  0.43283739    -0.85700
C138        C  0.61587866  0.84040048  0.45208483     1.02000
O139        O  0.61456626  0.85657473  0.47285848    -0.78500
O140        O  0.63208052  0.89447416  0.51156109    -0.78600
C141        C  0.65190007  0.88288571  0.52472605     1.02000
O142        O  0.66555231  0.93510399  0.49783934    -0.86000
O143        O  0.69880525  0.92810263  0.45160666    -0.83000
C144        C  0.70822367  0.91852734  0.42888931     0.97500
O145        O  0.70128525  0.89426254  0.42049092    -0.83100
O146        O  0.64553536  0.89740679  0.40564232    -0.85700
C147        C  0.62030580  0.90437990  0.40997184     1.02000
O148        O  0.60851853  0.89959417  0.43300182    -0.78500
O149        O  0.62948905  0.93827514  0.47025387    -0.78600
C150        C  0.64657368  0.94965475  0.48679980     1.01900
Cr151      Cr  0.68645904  0.90317869  0.48167687     1.93700
Cr152      Cr  0.66713333  0.87085823  0.43012623     1.93200
Cr153      Cr  0.62398593  0.89672998  0.47106220     1.39100
O154        O  0.65899574  0.89013737  0.46070467    -1.23700
O155        O  0.64575062  0.91735646  0.74152388    -0.86000
O156        O  0.64272509  0.95730358  0.78355427    -0.83000
C157        C  0.61730745  0.95543310  0.79023866     0.97500
O158        O  0.60865396  0.93396637  0.80328894    -0.83100
O159        O  0.60869337  0.87733492  0.82277688    -0.85700
C160        C  0.60307802  0.86010022  0.80326847     1.02000
O161        O  0.61879406  0.85879450  0.78205738    -0.78500
O162        O  0.65898739  0.87340347  0.74396046    -0.78600
C163        C  0.64874429  0.89363128  0.73036848     1.02000
O164        O  0.70129188  0.90485381  0.75828771    -0.86000
O165        O  0.69497808  0.93845515  0.80380082    -0.83000
C166        C  0.68572956  0.94818919  0.82647284     0.97500
O167        O  0.66067220  0.94324154  0.83411890    -0.83100
O168        O  0.66300378  0.88812546  0.84862974    -0.85700
C169        C  0.66835775  0.86258912  0.84480307     1.02000
O170        O  0.66036195  0.85038328  0.82300211    -0.78500
O171        O  0.70146279  0.86841745  0.78579127    -0.78600
C172        C  0.71423008  0.88469833  0.76930746     1.01900
Cr173      Cr  0.66985649  0.92744209  0.77342127     1.93700
Cr174      Cr  0.63621475  0.90996429  0.82496789     1.93200
Cr175      Cr  0.65957728  0.86554312  0.78449968     1.39100
O176        O  0.65489682  0.90090159  0.79428903    -1.23700
O177        O  0.23961624  0.86589194  0.08018974    -0.86000
O178        O  0.28136787  0.86807246  0.04024366    -0.83000
C179        C  0.28835082  0.89296548  0.04456972     0.97500
O180        O  0.30177812  0.89923894  0.06643043    -0.83100
O181        O  0.32209012  0.89477386  0.12147642    -0.85700
C182        C  0.30269158  0.90032611  0.13890997     1.02000
O183        O  0.28157745  0.88476540  0.14050607    -0.78500
O184        O  0.24062451  0.85004399  0.12337102    -0.78600
C185        C  0.22872458  0.86395576  0.10419739     1.02000
O186        O  0.25165480  0.80831298  0.08890947    -0.86000
O187        O  0.29824169  0.81364585  0.05463307    -0.83000
C188        C  0.32136865  0.82259139  0.04543348     0.97500
O189        O  0.33025546  0.84664227  0.05242971    -0.83100
O190        O  0.34591642  0.84058187  0.10682706    -0.85700
C191        C  0.34229311  0.83310566  0.13186896     1.02000
O192        O  0.32013346  0.83928463  0.14492965    -0.78500
O193        O  0.27953571  0.80371584  0.12463881    -0.78600
C194        C  0.26107105  0.79370459  0.10877092     1.01900
Cr195      Cr  0.26939250  0.83983682  0.06815191     1.93700
Cr196      Cr  0.32269256  0.86924141  0.08740945     1.93200
Cr197      Cr  0.28136606  0.84485716  0.13060253     1.39100
O198        O  0.29134992  0.85132105  0.09555503    -1.23700
O199        O  0.02646665  0.84195665  0.10388802    -0.86000
O200        O  0.00040054  0.80935251  0.14172209    -0.83000
C201        C  0.98223458  0.79692178  0.15591949     0.97500
O202        O  0.95653673  0.80328531  0.15270770    -0.83100
O203        O  0.95181878  0.86242851  0.16232788    -0.85700
C204        C  0.95343956  0.88837908  0.15710976     1.02000
O205        O  0.95608706  0.89665841  0.13200979    -0.78500
O206        O  0.00975970  0.88193128  0.11958485    -0.78600
C207        C  0.02993753  0.86554035  0.11536828     1.02000
O208        O  0.98809662  0.82281468  0.06155272    -0.86000
O209        O  0.96344446  0.78736256  0.09891095    -0.83000
C210        C  0.93765706  0.79075793  0.09352808     0.97500
O211        O  0.92458094  0.81182867  0.10262596    -0.83100
O212        O  0.91474404  0.86737553  0.11464232    -0.85700
C213        C  0.91716195  0.87786773  0.09027737     1.02000
O214        O  0.94002748  0.87593100  0.07750214    -0.78500
O215        O  0.99473511  0.86786006  0.06377846    -0.78600
C216        C  0.99462755  0.84543290  0.04988926     1.01900
Cr217      Cr  0.99285235  0.81725915  0.10226875     1.93700
Cr218      Cr  0.93910076  0.83665908  0.13195379     1.93200
Cr219      Cr  0.97458175  0.87814452  0.09908462     1.39100
O220        O  0.96910268  0.84397858  0.11131855    -1.23700
O221        O  0.37191272  0.97717181  0.31694096    -0.86000
O222        O  0.37568680  0.02633091  0.28746605    -0.83000
C223        C  0.35025877  0.03144940  0.29181405     0.97500
O224        O  0.34292266  0.04261674  0.31485788    -0.83100
O225        O  0.34488322  0.05340550  0.37325788    -0.85700
C226        C  0.33506639  0.03211156  0.38571370     1.02000
O227        O  0.34679666  0.00866952  0.38252569    -0.78500
O228        O  0.38163323  0.96845783  0.36097446    -0.78600
C229        C  0.36977148  0.96185027  0.33830204     1.02000
O230        O  0.42906623  0.98336515  0.33389161    -0.86000
O231        O  0.42933562  0.03566101  0.30950948    -0.83000
C232        C  0.42200584  0.06011446  0.30274929     0.97500
O233        O  0.39805542  0.06940141  0.30978982    -0.83100
O234        O  0.40249688  0.07238909  0.36740719    -0.85700
C235        C  0.40689264  0.06193150  0.39145510     1.02000
O236        O  0.39359878  0.04050160  0.39895506    -0.78500
O237        O  0.42948453  0.00247721  0.37523605    -0.78600
C238        C  0.44193254  0.98915732  0.35614207     1.01900
Cr239      Cr  0.40052334  0.00673462  0.31424150     1.93700
Cr240      Cr  0.37273140  0.05734038  0.34145663     1.93200
Cr241      Cr  0.38792119  0.00614252  0.37696293     1.39100
O242        O  0.38697327  0.02340903  0.34435336    -1.23700
O243        O  0.40792492  0.76022056  0.33497988    -0.86000
O244        O  0.44203473  0.73941443  0.37636318    -0.83000
C245        C  0.45407573  0.72308000  0.39312835     0.97500
O246        O  0.44888742  0.69698527  0.39228702    -0.83100
O247        O  0.39115547  0.69142085  0.40484043    -0.85700
C248        C  0.36505602  0.69447323  0.40114839     1.02000
O249        O  0.35510694  0.69544352  0.37658818    -0.78500
O250        O  0.36987306  0.74677474  0.35675517    -0.78600
C251        C  0.38430603  0.76575255  0.34574821     1.02000
O252        O  0.42604207  0.71648951  0.29897172    -0.86000
O253        O  0.46363506  0.69796466  0.33825807    -0.83000
C254        C  0.46088548  0.67189931  0.33484630     0.97500
O255        O  0.44016618  0.65940539  0.34545979    -0.83100
O256        O  0.38483652  0.65030490  0.36111427    -0.85700
C257        C  0.37276528  0.65065551  0.33743247     1.02000
O258        O  0.37243659  0.67257221  0.32312839    -0.78500
O259        O  0.38095050  0.72417123  0.30237826    -0.78600
C260        C  0.40296302  0.72241686  0.28767927     1.01900
Cr261      Cr  0.43307025  0.72685424  0.33835215     1.93700
Cr262      Cr  0.41576612  0.67654550  0.37443387     1.93200
Cr263      Cr  0.37210559  0.70917270  0.34065289     1.39100
O264        O  0.40694487  0.70438536  0.35141526    -1.23700
O265        O  0.52234526  0.66060741  0.88540261    -0.86000
O266        O  0.48265890  0.70275354  0.87994987    -0.83000
C267        C  0.47719725  0.70075927  0.85434901     0.97500
O268        O  0.46306740  0.68012243  0.84554976    -0.83100
O269        O  0.44144847  0.62473989  0.84524666    -0.85700
C270        C  0.46054509  0.60677559  0.84057853     1.02000
O271        O  0.48107887  0.60468535  0.85701764    -0.78500
O272        O  0.51793692  0.61703250  0.89897666    -0.78600
C273        C  0.53269949  0.63659451  0.88936155     1.02000
O274        O  0.50213612  0.65016307  0.94009622    -0.86000
O275        O  0.45857726  0.68634781  0.93129837    -0.83000
C276        C  0.43655980  0.69661808  0.92089998     0.97500
O277        O  0.42975902  0.69109257  0.89582391    -0.83100
O278        O  0.41290807  0.63588465  0.89748429    -0.85700
C279        C  0.41576595  0.61003478  0.90239556     1.02000
O280        O  0.43822818  0.59753666  0.89673505    -0.78500
O281        O  0.47427667  0.61408235  0.93941446    -0.78600
C282        C  0.49097667  0.62980403  0.95247751     1.01900
Cr283      Cr  0.48972382  0.67290067  0.90785709     1.93700
Cr284      Cr  0.43904615  0.65724229  0.87227834     1.93200
Cr285      Cr  0.47706040  0.61130551  0.89762419     1.39100
O286        O  0.46844917  0.64706649  0.89252312    -1.23700
O287        O  0.74996664  0.63136035  0.92539420    -0.86000
O288        O  0.79251415  0.62468167  0.96400274    -0.83000
C289        C  0.79816127  0.59938562  0.95984136     0.97500
O290        O  0.81108977  0.59218720  0.93776473    -0.83100
O291        O  0.82889660  0.59550107  0.88129350    -0.85700
C292        C  0.80867653  0.59162131  0.86443993     1.02000
O293        O  0.78807339  0.60816915  0.86432935    -0.78500
O294        O  0.75139565  0.64808647  0.88267165    -0.78600
C295        C  0.73835057  0.63581805  0.90212637     1.02000
O296        O  0.76794740  0.68741783  0.91647727    -0.86000
O297        O  0.81374857  0.67724721  0.94889244    -0.83000
C298        C  0.83617853  0.66663223  0.95786481     0.97500
O299        O  0.84394616  0.64243683  0.94996355    -0.83100
O300        O  0.85736834  0.64759881  0.89398130    -0.85700
C301        C  0.85298099  0.65421235  0.86873769     1.02000
O302        O  0.82993279  0.64895719  0.85726081    -0.78500
O303        O  0.79479209  0.68924881  0.87952630    -0.78600
C304        C  0.77893550  0.70128659  0.89691578     1.01900
Cr305      Cr  0.78258633  0.65403781  0.93645728     1.93700
Cr306      Cr  0.83310500  0.62065321  0.91525569     1.93200
Cr307      Cr  0.79192831  0.64808756  0.87373081     1.39100
O308        O  0.80267790  0.64074073  0.90838676    -1.23700
O309        O  0.32701815  0.36762914  0.99181746    -0.86000
O310        O  0.29281452  0.37244750  0.03819810    -0.83000
C311        C  0.29699909  0.34732709  0.04439331     0.97500
O312        O  0.31979912  0.34054220  0.05621780    -0.83100
O313        O  0.37700688  0.34340743  0.07146296    -0.85700
C314        C  0.39297786  0.33534849  0.05181866     1.02000
O315        O  0.39292497  0.34811419  0.02872861    -0.78500
O316        O  0.37126326  0.37911301  0.98594213    -0.78600
C317        C  0.34937698  0.36665312  0.97771973     1.02000
O318        O  0.34056402  0.42491696  0.99618848    -0.86000
O319        O  0.31301644  0.42670062  0.04736607    -0.83000
C320        C  0.30534819  0.41999253  0.07177699     0.97500
O321        O  0.31198217  0.39622633  0.08189598    -0.83100
O322        O  0.36876405  0.39948127  0.09115625    -0.85700
C323        C  0.39340380  0.40561956  0.08349723     1.02000
O324        O  0.40307977  0.39766391  0.06024098    -0.78500
O325        O  0.37967064  0.42948505  0.01884735    -0.78600
C326        C  0.36167031  0.43930010  0.00227303     1.01900
Cr327      Cr  0.32073919  0.39704307  0.01988669     1.93700
Cr328      Cr  0.34464129  0.37069958  0.07277191     1.93200
Cr329      Cr  0.38403283  0.38840082  0.02455700     1.39100
O330        O  0.35015465  0.38539313  0.03926768    -1.23700
O331        O  0.34045848  0.39714088  0.77130045    -0.86000
O332        O  0.38083429  0.43070028  0.74860135    -0.83000
C333        C  0.39718118  0.44200514  0.73135652     0.97500
O334        O  0.39614736  0.43536196  0.70556659    -0.83100
O335        O  0.40844313  0.37737006  0.70150025    -0.85700
C336        C  0.40488210  0.35130826  0.70462287     1.02000
O337        O  0.38034946  0.34164605  0.70716068    -0.78500
O338        O  0.36272131  0.35898581  0.75897497    -0.78600
C339        C  0.35244615  0.37439283  0.77767977     1.02000
O340        O  0.30327968  0.41303483  0.72737776    -0.86000
O341        O  0.34201061  0.45053694  0.70741056    -0.83000
C342        C  0.33904467  0.44754131  0.68132461     0.97500
O343        O  0.34857347  0.42601145  0.66932217    -0.83100
O344        O  0.36345098  0.37017689  0.66190640    -0.85700
C345        C  0.34002779  0.35770404  0.66344302     1.02000
O346        O  0.32625513  0.35800670  0.68576304    -0.78500
O347        O  0.30753821  0.36869645  0.73778373    -0.78600
C348        C  0.29243002  0.39020613  0.73466492     1.01900
Cr349      Cr  0.34271735  0.42089014  0.73702919     1.93700
Cr350      Cr  0.37772535  0.40176969  0.68663975     1.93200
Cr351      Cr  0.34513840  0.35936964  0.72180435     1.39100
O352        O  0.35548301  0.39401322  0.71528791    -1.23700
O353        O  0.08785572  0.23022705  0.87343953    -0.86000
O354        O  0.04728331  0.27127345  0.87925630    -0.83000
C355        C  0.04984403  0.27827968  0.90453287     0.97500
O356        O  0.07139588  0.29137082  0.91252588    -0.83100
O357        O  0.12696890  0.31158212  0.91096816    -0.85700
C358        C  0.14429275  0.29206879  0.91646807     1.02000
O359        O  0.14630656  0.27137410  0.90027802    -0.78500
O360        O  0.13179952  0.23345024  0.86002130    -0.78600
C361        C  0.11178903  0.21942461  0.87009580     1.02000
O362        O  0.09838076  0.24856121  0.81788895    -0.86000
O363        O  0.06371059  0.29345403  0.82653514    -0.83000
C364        C  0.05370020  0.31563348  0.83666323     0.97500
O365        O  0.05918245  0.32247945  0.86171643    -0.83100
O366        O  0.11387812  0.33782014  0.85743759    -0.85700
C367        C  0.13937409  0.33480604  0.85130374     1.02000
O368        O  0.15267624  0.31330629  0.85876479    -0.78500
O369        O  0.13463302  0.27617649  0.81799363    -0.78600
C370        C  0.11874107  0.25950036  0.80514029     1.01900
Cr371      Cr  0.07634706  0.26251907  0.85052912     1.93700
Cr372      Cr  0.09367467  0.31356510  0.88454029     1.93200
Cr373      Cr  0.13853505  0.27431661  0.85967890     1.39100
O374        O  0.10294019  0.28336703  0.86523777    -1.23700
O375        O  0.12107157  0.00500776  0.83606714    -0.86000
O376        O  0.12843971  0.96527685  0.79504777    -0.83000
C377        C  0.15368621  0.95854138  0.79875794     0.97500
O378        O  0.16071354  0.94452519  0.82014059    -0.83100
O379        O  0.15741723  0.92398770  0.87522852    -0.85700
C380        C  0.16200596  0.94383213  0.89223516     1.02000
O381        O  0.14510786  0.96399146  0.89389427    -0.78500
O382        O  0.10478165  0.00113068  0.87879080    -0.78600
C383        C  0.11685298  0.01522870  0.85999959     1.02000
O384        O  0.06458335  0.98644014  0.84409444    -0.86000
O385        O  0.07539330  0.94259953  0.80842593    -0.83000
C386        C  0.08621959  0.92058459  0.79869182     0.97500
O387        O  0.11068279  0.91304498  0.80600959    -0.83100
O388        O  0.10513540  0.89653787  0.86079777    -0.85700
C389        C  0.09858698  0.89918043  0.88624840     1.02000
O390        O  0.10435600  0.92118811  0.89938762    -0.78500
O391        O  0.06372095  0.95800799  0.87989483    -0.78600
C392        C  0.05145632  0.97552651  0.86432466     1.01900
Cr393      Cr  0.09843687  0.97315814  0.82300717     1.93700
Cr394      Cr  0.13218443  0.92172470  0.84124493     1.93200
Cr395      Cr  0.10501108  0.96026429  0.88517480     1.39100
O396        O  0.11194924  0.95158661  0.84984370    -1.23700
O397        O  0.92677729  0.73060069  0.62285273    -0.86000
O398        O  0.96824724  0.77070852  0.61960297    -0.83000
C399        C  0.96395613  0.77978331  0.59531282     0.97500
O400        O  0.94240647  0.79453578  0.59025203    -0.83100
O401        O  0.88687630  0.81470864  0.59761302    -0.85700
C402        C  0.86889168  0.79585355  0.59226396     1.02000
O403        O  0.86775438  0.77413317  0.60720024    -0.78500
O404        O  0.88509788  0.73267058  0.64210733    -0.78600
C405        C  0.90280061  0.72026665  0.62686014     1.02000
O406        O  0.92135313  0.74218247  0.68122014    -0.86000
O407        O  0.95667323  0.78688550  0.67497805    -0.83000
C408        C  0.96552586  0.81034429  0.66678578     0.97500
O409        O  0.95784423  0.82033101  0.64332145    -0.83100
O410        O  0.90354951  0.83640808  0.65238031    -0.85700
C411        C  0.87865088  0.83258443  0.66041608     1.02000
O412        O  0.86507719  0.81169212  0.65240773    -0.78500
O413        O  0.88694928  0.77139247  0.68809362    -0.78600
C414        C  0.90373400  0.75321348  0.69752282     1.01900
Cr415      Cr  0.94114379  0.75932720  0.64880679     1.93700
Cr416      Cr  0.92198542  0.81422644  0.62184964     1.93200
Cr417      Cr  0.87898092  0.77323064  0.64693028     1.39100
O418        O  0.91396916  0.78241547  0.63895774    -1.23700
O419        O  0.89637924  0.51377277  0.66671139    -0.86000
O420        O  0.88967119  0.47637924  0.71033108    -0.83000
C421        C  0.86446057  0.47044180  0.70609215     0.97500
O422        O  0.85785187  0.45511733  0.68559461    -0.83100
O423        O  0.86207899  0.43095506  0.63209785    -0.85700
C424        C  0.85795905  0.44922625  0.61316720     1.02000
O425        O  0.87524835  0.46883736  0.60983195    -0.78500
O426        O  0.91399762  0.50775804  0.62467455    -0.78600
C427        C  0.90047882  0.52238952  0.64205347     1.02000
O428        O  0.95301174  0.49615593  0.66149894    -0.86000
O429        O  0.94308649  0.45388885  0.69927748    -0.83000
C430        C  0.93255721  0.43192410  0.70944272     0.97500
O431        O  0.90807925  0.42421500  0.70248855    -0.83100
O432        O  0.91411953  0.40420290  0.64937505    -0.85700
C433        C  0.92196461  0.40544901  0.62419585     1.02000
O434        O  0.91757716  0.42691552  0.60957660    -0.78500
O435        O  0.95674261  0.46553366  0.62797720    -0.78600
C436        C  0.96787583  0.48347549  0.64378279     1.01900
Cr437      Cr  0.91953497  0.48325383  0.68238217     1.93700
Cr438      Cr  0.88682983  0.43082323  0.66659849     1.93200
Cr439      Cr  0.91530703  0.46662876  0.62088160     1.39100
O440        O  0.90716392  0.46002843  0.65650440    -1.23700
O441        O  0.98978170  0.33009767  0.41209453    -0.86000
O442        O  0.01981269  0.29958449  0.37462294    -0.83000
C443        C  0.03945848  0.29051764  0.35970192     0.97500
O444        O  0.06424731  0.29992219  0.36283405    -0.83100
O445        O  0.06337832  0.35808429  0.35149225    -0.85700
C446        C  0.05711391  0.38360665  0.35465537     1.02000
O447        O  0.05159056  0.39276023  0.37888131    -0.78500
O448        O  0.00055251  0.36891755  0.39033290    -0.78600
C449        C  0.98251221  0.35160423  0.39845194     1.14000
O450        O  0.03140954  0.31884296  0.45359259    -0.86000
O451        O  0.05923045  0.28407298  0.41722497    -0.83000
C452        C  0.08430727  0.29016164  0.42297863     0.97500
O453        O  0.09481561  0.31257405  0.41397323    -0.83100
O454        O  0.09790774  0.36848870  0.40133850    -0.85700
C455        C  0.09260818  0.37959382  0.42503148     1.02000
O456        O  0.06826845  0.37884037  0.43490171    -0.78500
O457        O  0.01640434  0.36180159  0.44808492    -0.78600
C458        C  0.02136281  0.34098022  0.46369231     1.01900
Cr459      Cr  0.02661538  0.31027939  0.41349960     1.93700
Cr460      Cr  0.07784631  0.33507021  0.38349091     1.93200
Cr461      Cr  0.03506560  0.37314242  0.41217537     1.39100
O462        O  0.04655065  0.33945595  0.40291407    -1.23700
O463        O  0.76811669  0.37543583  0.43042410    -0.86000
O464        O  0.72384163  0.37315083  0.46818287    -0.83000
C465        C  0.71992628  0.39887724  0.46531823     0.97500
O466        O  0.70747933  0.40751670  0.44352304    -0.83100
O467        O  0.68933256  0.40843168  0.38721419    -0.85700
C468        C  0.70925188  0.41465140  0.37066295     1.02000
O469        O  0.73027426  0.39888272  0.36868136    -0.78500
O470        O  0.77007921  0.36299450  0.38611649    -0.78600
C471        C  0.78080020  0.37482123  0.40720042     1.02000
O472        O  0.75786109  0.31937094  0.41619171    -0.86000
O473        O  0.70888837  0.32080587  0.44693318    -0.83000
C474        C  0.68515476  0.32876313  0.45559814     0.97500
O475        O  0.67661078  0.35362872  0.45074634    -0.83100
O476        O  0.66399518  0.35398997  0.39504674    -0.85700
C477        C  0.66922407  0.34792620  0.36981120     1.02000
O478        O  0.69240387  0.35416245  0.35875056    -0.78500
O479        O  0.73187978  0.31664733  0.37901114    -0.78600
C480        C  0.74910954  0.30555405  0.39570297     1.01900
Cr481      Cr  0.73815297  0.34827769  0.43828449     1.93700
Cr482      Cr  0.68655950  0.37996421  0.41870473     1.93200
Cr483      Cr  0.73008932  0.35835408  0.37583820     1.39100
O484        O  0.71796230  0.36216384  0.41061686    -1.23700
O485        O  0.85514155  0.08759940  0.23527501    -0.86000
O486        O  0.89502103  0.05700057  0.26333095    -0.83000
C487        C  0.90939630  0.04604705  0.28239025     0.97500
O488        O  0.90541761  0.05306655  0.30778316    -0.83100
O489        O  0.91719618  0.11112560  0.30954509    -0.85700
C490        C  0.91370469  0.13691742  0.30450671     1.02000
O491        O  0.88929201  0.14625633  0.29947343    -0.78500
O492        O  0.87550779  0.12637669  0.24782998    -0.78600
C493        C  0.86544225  0.11112961  0.22909137     1.02000
O494        O  0.81523217  0.07238560  0.27639012    -0.86000
O495        O  0.85277521  0.03760446  0.30214119    -0.83000
C496        C  0.84566020  0.04291308  0.32711200     0.97500
O497        O  0.85436440  0.06485271  0.33880423    -0.83100
O498        O  0.86880655  0.12059950  0.34485675    -0.85700
C499        C  0.84518392  0.13223948  0.34086084     1.02000
O500        O  0.83352118  0.13066095  0.31754154    -0.78500
O501        O  0.81880274  0.11672453  0.26542787    -0.78600
C502        C  0.80420346  0.09481396  0.26802452     1.01900
Cr503      Cr  0.85561164  0.06553153  0.27082523     1.93700
Cr504      Cr  0.88526353  0.08768498  0.32311324     1.93200
Cr505      Cr  0.85519118  0.12765686  0.28333223     1.39100
O506        O  0.86552817  0.09367093  0.29231813    -1.23700
O507        O  0.82295228  0.12759975  0.02217204    -0.86000
O508        O  0.79131942  0.12363503  0.97445036    -0.83000
C509        C  0.79551788  0.14924890  0.97103085     0.97500
O510        O  0.81790678  0.15688838  0.95881228    -0.83100
O511        O  0.87543918  0.15535131  0.94434252    -0.85700
C512        C  0.88908013  0.16449168  0.96514816     1.02000
O513        O  0.88763187  0.15193806  0.98830362    -0.78500
O514        O  0.86740618  0.11763687  0.02907666    -0.78600
C515        C  0.84490869  0.12959930  0.03657173     1.02000
O516        O  0.83977600  0.07114228  0.01595768    -0.86000
O517        O  0.81403223  0.07020940  0.96433573    -0.83000
C518        C  0.80689369  0.07721884  0.93988737     0.97500
O519        O  0.81207048  0.10168319  0.93082743    -0.83100
O520        O  0.86905206  0.09844609  0.92411200    -0.85700
C521        C  0.89342561  0.09311208  0.93327591     1.02000
O522        O  0.90212720  0.10515871  0.95501263    -0.78500
O523        O  0.87991893  0.06952952  0.99432585    -0.78600
C524        C  0.86162119  0.05788688  0.00938447     1.01900
Cr525      Cr  0.81914264  0.09906356  0.99299304     1.93700
Cr526      Cr  0.84375821  0.12748680  0.94158697     1.93200
Cr527      Cr  0.88183727  0.11103324  0.99061843     1.39100
O528        O  0.84850520  0.11253525  0.97499301    -1.23700
C529        C  0.81865539  0.15277655  0.10634615    -0.11500
C530        C  0.84421556  0.15499463  0.12052177     0.05700
C531        C  0.86933631  0.15600423  0.10546478    -0.10200
C532        C  0.86932255  0.15016069  0.07706375    -0.11900
C533        C  0.84409129  0.14383478  0.06355284    -0.01700
C534        C  0.81857385  0.14745552  0.07772062    -0.10800
C535        C  0.84603266  0.14599946  0.14956751     0.05700
H536        H  0.88921952  0.15749030  0.11624127     0.07600
H537        H  0.88921507  0.14813911  0.06630277     0.11100
H538        H  0.79883469  0.14318951  0.06748881     0.11400
H539        H  0.79913175  0.15187138  0.11788818     0.07700
C540        C  0.85959629  0.16239994  0.16950902    -0.11500
C541        C  0.86689198  0.15078923  0.19525668    -0.10800
C542        C  0.86114031  0.12253191  0.20097541    -0.01700
C543        C  0.84732488  0.10634875  0.18090313    -0.11900
C544        C  0.83968949  0.11805277  0.15548606    -0.10300
H545        H  0.86513809  0.18382885  0.16482922     0.07700
H546        H  0.87692265  0.16390787  0.21066652     0.11400
H547        H  0.84222557  0.08466572  0.18487771     0.11100
H548        H  0.83000758  0.10489958  0.13984477     0.07600
C549        C  0.79251773  0.24064891  0.40796171    -0.11500
C550        C  0.78707283  0.22486561  0.38406151     0.05700
C551        C  0.76787392  0.23509120  0.36412773    -0.10200
C552        C  0.75487161  0.26114019  0.36781693    -0.11900
C553        C  0.76078667  0.27717172  0.39160462    -0.01700
C554        C  0.77941926  0.26636475  0.41178623    -0.10800
C555        C  0.80225377  0.19832690  0.37938842     0.05700
H556        H  0.76356790  0.22326957  0.34534343     0.07600
H557        H  0.74069729  0.26891637  0.35192275     0.11100
H558        H  0.78435039  0.27801752  0.43051340     0.11400
H559        H  0.80702556  0.23310065  0.42366745     0.07700
C560        C  0.83165777  0.19716477  0.38135348    -0.11500
C561        C  0.84628495  0.17343983  0.37224649    -0.10800
C562        C  0.83157960  0.15067799  0.36128369    -0.01700
C563        C  0.80215293  0.15084042  0.36217106    -0.11900
C564        C  0.78761267  0.17452589  0.37095999    -0.10300
H565        H  0.84336742  0.21535151  0.38786131     0.07700
H566        H  0.86894345  0.17405008  0.37108960     0.11400
H567        H  0.79042229  0.13356967  0.35351933     0.11100
H568        H  0.76495914  0.17479324  0.36977730     0.07600
C569        C  0.02002754  0.21676586  0.34319109    -0.11500
C570        C  0.00145704  0.22035506  0.32054824     0.05700
C571        C  0.00096833  0.24676509  0.30725162    -0.10200
C572        C  0.01601658  0.26944334  0.31814998    -0.11900
C573        C  0.03289727  0.26612252  0.34190265    -0.01700
C574        C  0.03557292  0.23931152  0.35360982    -0.10800
C575        C  0.98044824  0.19802036  0.31319378     0.05700
H576        H  0.98778477  0.25044782  0.28924230     0.07600
H577        H  0.01301727  0.29000369  0.30911676     0.11100
H578        H  0.04767719  0.23636218  0.37253594     0.11400
H579        H  0.02102567  0.19714319  0.35440237     0.07700
C580        C  0.98570201  0.16934445  0.31814300    -0.11500
C581        C  0.96451305  0.14922056  0.31459250    -0.10800
C582        C  0.93750618  0.15717056  0.30584126    -0.01700
C583        C  0.93272095  0.18551961  0.29960325    -0.11900
C584        C  0.95366641  0.20553726  0.30333380    -0.10300
H585        H  0.00608148  0.16237760  0.32520284     0.07700
H586        H  0.96909201  0.12757034  0.31935995     0.11400
H587        H  0.91230722  0.19255750  0.29264745     0.11100
H588        H  0.94818261  0.22716226  0.29969035     0.07600
C589        C  0.85529267  0.38605568  0.42640503    -0.11500
C590        C  0.86770759  0.38453108  0.39982222     0.05700
C591        C  0.85115906  0.38689487  0.37583789    -0.10200
C592        C  0.82215294  0.38695982  0.37840768    -0.11900
C593        C  0.80966811  0.38462261  0.40497141    -0.01700
C594        C  0.82629492  0.38628824  0.42900046    -0.10800
C595        C  0.89682629  0.37539096  0.39729081     0.05700
H596        H  0.86051318  0.38593944  0.35519602     0.07600
H597        H  0.80959111  0.38630010  0.35956966     0.11100
H598        H  0.81709009  0.38490263  0.44968116     0.11400
H599        H  0.86800693  0.38470883  0.44510652     0.07700
C600        C  0.91598469  0.39005635  0.38068825    -0.11500
C601        C  0.94391242  0.38147758  0.37973221    -0.10800
C602        C  0.95267490  0.35793635  0.39505514    -0.01700
C603        C  0.93290406  0.34225627  0.41003931    -0.11900
C604        C  0.90522698  0.35101391  0.41124874    -0.10300
H605        H  0.90954535  0.40860215  0.36935331     0.07700
H606        H  0.95877711  0.39376642  0.36785666     0.11400
H607        H  0.93901065  0.32391965  0.42189876     0.11100
H608        H  0.89037993  0.33896575  0.42343805     0.07600
C609        C  0.77135394  0.44470651  0.50357938    -0.11500
C610        C  0.76776600  0.43517164  0.53135557     0.05700
C611        C  0.74421170  0.41851871  0.53718794    -0.10200
C612        C  0.72653075  0.40943416  0.51570851    -0.11900
C613        C  0.73138137  0.41709471  0.48770915    -0.01700
C614        C  0.75338627  0.43571365  0.48199600    -0.10800
C615        C  0.78965727  0.44001406  0.55353384     0.05700
H616        H  0.74015068  0.41129182  0.55827521     0.07600
H617        H  0.71009413  0.39470261  0.52073905     0.11100
H618        H  0.75825788  0.44126667  0.46056398     0.11400
H619        H  0.78924248  0.45742454  0.49809371     0.07700
C620        C  0.80509057  0.46501177  0.55491203    -0.11500
C621        C  0.82666766  0.46834946  0.57468913    -0.10800
C622        C  0.83345975  0.44681001  0.59372518    -0.01700
C623        C  0.81763800  0.42213431  0.59274319    -0.11900
C624        C  0.79622827  0.41875672  0.57296681    -0.10300
H625        H  0.80059660  0.48199511  0.54060284     0.07700
H626        H  0.83830445  0.48771854  0.57481755     0.11400
H627        H  0.82235234  0.40496561  0.60676311     0.11100
H628        H  0.78542776  0.39894140  0.57236091     0.07600
C629        C  0.94211977  0.35647260  0.56752977    -0.11500
C630        C  0.97130104  0.35583208  0.57094335     0.05700
C631        C  0.98302727  0.36644589  0.59564086    -0.10200
C632        C  0.96594435  0.37950000  0.61559374    -0.11900
C633        C  0.93711489  0.38248128  0.61073512    -0.01700
C634        C  0.92519757  0.37000083  0.58713035    -0.10800
C635        C  0.98908085  0.34901159  0.54656100     0.05700
H636        H  0.00552381  0.36633875  0.59853011     0.07600
H637        H  0.97558568  0.38973636  0.63330027     0.11100
H638        H  0.90313350  0.37285213  0.58265620     0.11400
H639        H  0.93269333  0.34887305  0.54842884     0.07700
C640        C  0.98480223  0.32428735  0.53144546    -0.11500
C641        C  0.99715642  0.32073804  0.50513233    -0.10800
C642        C  0.01323286  0.34222578  0.49330864    -0.01700
C643        C  0.01859810  0.36636526  0.50893185    -0.11900
C644        C  0.00692800  0.36956883  0.53555239    -0.10300
H645        H  0.97086727  0.30834725  0.53945587     0.07700
H646        H  0.99258114  0.30208436  0.49322904     0.11400
H647        H  0.03095331  0.38316449  0.50008279     0.11100
H648        H  0.01016332  0.38898506  0.54666152     0.07600
C649        C  0.86348069  0.65354894  0.61908807    -0.11500
C650        C  0.88510474  0.63554452  0.61106020     0.05700
C651        C  0.91099954  0.64642695  0.60246133    -0.10200
C652        C  0.91632758  0.67487424  0.60520329    -0.11900
C653        C  0.89567366  0.69244738  0.61645332    -0.01700
C654        C  0.86865288  0.68193012  0.62150945    -0.10800
C655        C  0.88296718  0.60579189  0.61738677     0.05700
H656        H  0.92793327  0.63262000  0.59624979     0.07600
H657        H  0.93715068  0.68260333  0.60076721     0.11100
H658        H  0.85208516  0.69522099  0.62954787     0.11400
H659        H  0.84335798  0.64537078  0.62555265     0.07700
C660        C  0.87777433  0.59744472  0.64509390    -0.11500
C661        C  0.88199328  0.56979217  0.65308404    -0.10800
C662        C  0.89140256  0.55030588  0.63334888    -0.01700
C663        C  0.89442555  0.55834915  0.60517183    -0.11900
C664        C  0.89046600  0.58601208  0.59728293    -0.10300
H665        H  0.87232262  0.61269909  0.66095035     0.07700
H666        H  0.87940320  0.56405408  0.67484852     0.11400
H667        H  0.90122182  0.54355010  0.58941184     0.11100
H668        H  0.89453131  0.59224563  0.57587685     0.07600
C669        C  0.03096538  0.90023983  0.74608851    -0.11500
C670        C  0.03927217  0.87307092  0.73877690     0.05700
C671        C  0.06361812  0.86172540  0.75084588    -0.10200
C672        C  0.07920233  0.87723091  0.77007414    -0.11900
C673        C  0.07047336  0.90419855  0.77783194    -0.01700
C674        C  0.04630587  0.91557706  0.76547039    -0.10800
C675        C  0.02184720  0.85643875  0.71940229     0.05700
H676        H  0.07058555  0.84088559  0.74536500     0.07600
H677        H  0.09781482  0.86797480  0.77915779     0.11100
H678        H  0.03913027  0.93637110  0.77084786     0.11400
H679        H  0.01214672  0.90938969  0.73732679     0.07700
C680        C  0.01495445  0.82868300  0.72587722    -0.11500
C681        C  0.99683643  0.81364624  0.70867558    -0.10800
C682        C  0.98544430  0.82597655  0.68448645    -0.01700
C683        C  0.99285671  0.85355036  0.67770928    -0.11900
C684        C  0.01078285  0.86865204  0.69504831    -0.10300
H685        H  0.02293336  0.81888069  0.74469188     0.07700
H686        H  0.99155591  0.79242236  0.71448012     0.11400
H687        H  0.98446390  0.86362904  0.65922981     0.11100
H688        H  0.01594027  0.88996633  0.68947622     0.07600
C689        C  0.98425822  0.01794587  0.86081678    -0.11500
C690        C  0.97268152  0.01310483  0.88737073     0.05700
C691        C  0.98525974  0.99287525  0.90477278    -0.10200
C692        C  0.00996851  0.97926730  0.89663068    -0.11900
C693        C  0.02270634  0.98563913  0.87090637    -0.01700
C694        C  0.00904190  0.00444141  0.85271312    -0.10800
C695        C  0.95066952  0.03210084  0.89866748     0.05700
H696        H  0.97666040  0.98855529  0.92530951     0.07600
H697        H  0.01985679  0.96489350  0.91111086     0.11100
H698        H  0.01822464  0.00977466  0.83267867     0.11400
H699        H  0.97523362  0.03356217  0.84708323     0.07700
C700        C  0.95474756  0.04385936  0.92511410    -0.11500
C701        C  0.93614738  0.06358822  0.93561890    -0.10800
C702        C  0.91258431  0.07230160  0.92018448    -0.01700
C703        C  0.90784784  0.06010601  0.89386692    -0.11900
C704        C  0.92699759  0.04036319  0.88302794    -0.10300
H705        H  0.97293041  0.03840375  0.93749123     0.07700
H706        H  0.94041700  0.07203057  0.95617603     0.11400
H707        H  0.88971612  0.06603846  0.88164995     0.11100
H708        H  0.92336951  0.03157163  0.86249354     0.07600
C709        C  0.97552726  0.26844259  0.92779788    -0.11500
C710        C  0.97783996  0.24483077  0.94521254     0.05700
C711        C  0.00484871  0.23604642  0.95338704    -0.10200
C712        C  0.02887688  0.24907624  0.94252187    -0.11900
C713        C  0.02635881  0.27122275  0.92343146    -0.01700
C714        C  0.99949061  0.28133186  0.91690592    -0.10800
C715        C  0.95264669  0.22748684  0.95195797     0.05700
H716        H  0.00746833  0.21776659  0.96649654     0.07600
H717        H  0.04930677  0.24035968  0.94719541     0.11100
H718        H  0.99701578  0.29807846  0.90181703     0.11400
H719        H  0.95513444  0.27605567  0.92139606     0.07700
C720        C  0.94961312  0.21443217  0.97816866    -0.11500
C721        C  0.92794357  0.19524721  0.98300364    -0.10800
C722        C  0.90885823  0.18838405  0.96166364    -0.01700
C723        C  0.91109309  0.20246858  0.93591218    -0.11900
C724        C  0.93259695  0.22180734  0.93116933    -0.10300
H725        H  0.96445111  0.21852708  0.99474562     0.07700
H726        H  0.92691467  0.18486844  0.00312116     0.11400
H727        H  0.89688487  0.19772207  0.91896857     0.11100
H728        H  0.93438237  0.23118987  0.91061754     0.07600
C729        C  0.01140038  0.34162517  0.77495209    -0.11500
C730        C  0.99890589  0.36584248  0.78578983     0.05700
C731        C  0.00441693  0.37360101  0.81353545    -0.10200
C732        C  0.02210238  0.35724770  0.83024485    -0.11900
C733        C  0.03480921  0.33305442  0.81933016    -0.01700
C734        C  0.02927447  0.32547772  0.79147830    -0.10800
C735        C  0.98076800  0.38320726  0.76772796     0.05700
H736        H  0.99487896  0.39220522  0.82228690     0.07600
H737        H  0.02587709  0.36357322  0.85163428     0.11100
H738        H  0.03880811  0.30705018  0.78236526     0.11400
H739        H  0.00766962  0.33546506  0.75349437     0.07700
C740        C  0.98662093  0.41163835  0.76379032    -0.11500
C741        C  0.97089076  0.42753116  0.74489651    -0.10800
C742        C  0.94865310  0.41538677  0.73007036    -0.01700
C743        C  0.94231348  0.38711384  0.73469505    -0.11900
C744        C  0.95842220  0.37109879  0.75314408    -0.10300
H745        H  0.00390232  0.42130913  0.77470666     0.07700
H746        H  0.97616627  0.44931008  0.74183012     0.11400
H747        H  0.92534780  0.37720439  0.72351577     0.11100
H748        H  0.95355565  0.34918348  0.75595011     0.07600
C749        C  0.11657383  0.08470925  0.89564510    -0.11500
C750        C  0.12813752  0.10173986  0.87491875     0.05700
C751        C  0.13949558  0.08986333  0.85059109    -0.10200
C752        C  0.13718550  0.06120361  0.84605890    -0.11900
C753        C  0.12370826  0.04438240  0.86599571    -0.01700
C754        C  0.11454989  0.05619036  0.89132470    -0.10800
C755        C  0.12464327  0.13193116  0.87698382     0.05700
H756        H  0.14843981  0.10296316  0.83438339     0.07600
H757        H  0.14470297  0.05247726  0.82654639     0.11100
H758        H  0.10438191  0.04367118  0.90725304     0.11400
H759        H  0.10790447  0.09370120  0.91456743     0.07700
C760        C  0.09760790  0.14307666  0.88002545    -0.11500
C761        C  0.09344032  0.17180286  0.87925074    -0.10800
C762        C  0.11632400  0.18964742  0.87543575    -0.01700
C763        C  0.14354815  0.17841332  0.87368119    -0.11900
C764        C  0.14765641  0.14965234  0.87423918    -0.10300
H765        H  0.07960936  0.12946181  0.88185164     0.07700
H766        H  0.07227461  0.17992705  0.88040509     0.11400
H767        H  0.16158116  0.19179793  0.87086365     0.11100
H768        H  0.16861544  0.14120283  0.87198767     0.07600
C769        C  0.19790771  0.37728468  0.82211018    -0.11500
C770        C  0.19056941  0.37763091  0.79370964     0.05700
C771        C  0.16404097  0.36833218  0.78551720    -0.10200
C772        C  0.14558207  0.35739261  0.80540293    -0.11900
C773        C  0.15388697  0.35489857  0.83342777    -0.01700
C774        C  0.17982115  0.36557207  0.84182801    -0.10800
C775        C  0.21247303  0.38289238  0.77276581     0.05700
H776        H  0.15832925  0.36804880  0.76361128     0.07600
H777        H  0.12597035  0.34844947  0.79848681     0.11100
H778        H  0.18679231  0.36312793  0.86324754     0.11400
H779        H  0.21855444  0.38392936  0.82864422     0.07700
C780        C  0.22531409  0.40909597  0.77096939    -0.11500
C781        C  0.25016079  0.41222988  0.75581153    -0.10800
C782        C  0.26282878  0.38895648  0.74310377    -0.01700
C783        C  0.24886471  0.36318796  0.74333512    -0.11900
C784        C  0.22370670  0.36024456  0.75789912    -0.10300
H785        H  0.21696022  0.42666709  0.78256159     0.07700
H786        H  0.26067258  0.43223343  0.75611474     0.11400
H787        H  0.25826933  0.34494494  0.73370479     0.11100
H788        H  0.21415267  0.33978972  0.75937052     0.07600
C789        C  0.25735988  0.30063531  0.99605057    -0.11500
C790        C  0.22945306  0.30800084  0.00265952     0.05700
C791        C  0.22470866  0.32317499  0.02744571    -0.10200
C792        C  0.24716721  0.33293108  0.04352963    -0.11900
C793        C  0.27502808  0.32740185  0.03567110    -0.01700
C794        C  0.27984625  0.31020416  0.01238557    -0.10800
C795        C  0.20587996  0.30229284  0.98257902     0.05700
H796        H  0.20363508  0.32878183  0.03371656     0.07600
H797        H  0.24282007  0.34674595  0.06094147     0.11100
H798        H  0.30105446  0.30652242  0.00515729     0.11400
H799        H  0.26207851  0.28929495  0.97705297     0.07700
C800        C  0.18408753  0.32192531  0.97875404    -0.11500
C801        C  0.16346950  0.31805758  0.95820933    -0.10800
C802        C  0.16393906  0.29445232  0.94075271    -0.01700
C803        C  0.18509788  0.27431895  0.94519593    -0.11900
C804        C  0.20573175  0.27818394  0.96574662    -0.10300
H805        H  0.18354602  0.34100861  0.99083719     0.07700
H806        H  0.14767545  0.33409171  0.95538764     0.11400
H807        H  0.18622681  0.25583623  0.93221791     0.11100
H808        H  0.22179530  0.26237007  0.96819362     0.07600
C809        C  0.36636281  0.33363271  0.84405998    -0.11500
C810        C  0.34803902  0.34719520  0.86262171     0.05700
C811        C  0.33135635  0.36934299  0.85304354    -0.10200
C812        C  0.33329216  0.37826684  0.82553399    -0.11900
C813        C  0.35174050  0.36502752  0.80688695    -0.01700
C814        C  0.36798252  0.34231522  0.81616791    -0.10800
C815        C  0.34903062  0.34192578  0.89283095     0.05700
H816        H  0.31763250  0.38058896  0.86719351     0.07600
H817        H  0.32025526  0.39561342  0.81890281     0.11100
H818        H  0.38218231  0.33165680  0.80205382     0.11400
H819        H  0.37967719  0.31674542  0.85129137     0.07700
C820        C  0.32403951  0.34086669  0.90831239    -0.11500
C821        C  0.32429904  0.34642500  0.93690071    -0.10800
C822        C  0.34957081  0.35326215  0.95012127    -0.01700
C823        C  0.37486218  0.35078261  0.93525259    -0.11900
C824        C  0.37459330  0.34506572  0.90674125    -0.10300
H825        H  0.30412173  0.33827504  0.89782895     0.07700
H826        H  0.30454960  0.34772962  0.94801573     0.11400
H827        H  0.39470289  0.35541345  0.94512877     0.11100
H828        H  0.39407086  0.34606212  0.89513393     0.07600
C829        C  0.79711938  0.55234928  0.79635249    -0.11500
C830        C  0.81787397  0.53147638  0.79742395     0.05700
C831        C  0.83402875  0.52906941  0.82196542    -0.10200
C832        C  0.83038171  0.54781400  0.84426858    -0.11900
C833        C  0.81020022  0.56921170  0.84280064    -0.01700
C834        C  0.79319081  0.57079631  0.81878379    -0.10800
C835        C  0.82411126  0.51366512  0.77241985     0.05700
H836        H  0.85041927  0.51346016  0.82343546     0.07600
H837        H  0.84389701  0.54602978  0.86234544     0.11100
H838        H  0.77753820  0.58709720  0.81677269     0.11400
H839        H  0.78416543  0.55470591  0.77792419     0.07700
C840        C  0.83123803  0.48525928  0.77545093    -0.11500
C841        C  0.84118395  0.46975405  0.75257012    -0.10800
C842        C  0.84401871  0.48219334  0.72609444    -0.01700
C843        C  0.83542400  0.51006649  0.72265209    -0.11900
C844        C  0.82539768  0.52557875  0.74547292    -0.10300
H845        H  0.83031593  0.47535439  0.79581451     0.07700
H846        H  0.84867911  0.44865248  0.75601666     0.11400
H847        H  0.83861419  0.52053219  0.70277505     0.11100
H848        H  0.82054980  0.54747501  0.74238159     0.07600
C849        C  0.92010142  0.71046880  0.76216647    -0.11500
C850        C  0.89869910  0.71831450  0.78066462     0.05700
C851        C  0.88020198  0.73990335  0.77270709    -0.10200
C852        C  0.88210693  0.75216098  0.74600964    -0.11900
C853        C  0.90265301  0.74308654  0.72694442    -0.01700
C854        C  0.92211578  0.72272275  0.73576266    -0.10800
C855        C  0.89348183  0.70139444  0.80625400     0.05700
H856        H  0.86333943  0.74620523  0.78652794     0.07600
H857        H  0.86697286  0.76794142  0.73997031     0.11100
H858        H  0.93851835  0.71545302  0.72186811     0.11400
H859        H  0.93475930  0.69409331  0.76780844     0.07700
C860        C  0.89217202  0.67214854  0.80406455    -0.11500
C861        C  0.88216179  0.65604027  0.82628217    -0.10800
C862        C  0.87377411  0.66872342  0.85135449    -0.01700
C863        C  0.87737228  0.69764727  0.85453818    -0.11900
C864        C  0.88699792  0.71393542  0.83205150    -0.10300
H865        H  0.89672547  0.66191016  0.78438233     0.07700
H866        H  0.87869817  0.63392038  0.82306408     0.11400
H867        H  0.87020481  0.70794912  0.87340666     0.11100
H868        H  0.88797450  0.73641084  0.83431525     0.07600
C869        C  0.46942846  0.53990492  0.79898792    -0.11500
C870        C  0.44535590  0.53991820  0.78213996     0.05700
C871        C  0.42822901  0.56391107  0.78198244    -0.10200
C872        C  0.43404269  0.58654861  0.79969007    -0.11900
C873        C  0.45731564  0.58584682  0.81771611    -0.01700
C874        C  0.47543362  0.56260559  0.81637892    -0.10800
C875        C  0.43670466  0.51401913  0.76712222     0.05700
H876        H  0.40942952  0.56450317  0.76937005     0.07600
H877        H  0.41957488  0.60401033  0.80020850     0.11100
H878        H  0.49353875  0.56122681  0.82991435     0.11400
H879        H  0.48318226  0.52187237  0.79937216     0.07700
C880        C  0.42637735  0.51494152  0.73957235    -0.11500
C881        C  0.41577595  0.49075886  0.72680012    -0.10800
C882        C  0.41474478  0.46534328  0.74155776    -0.01700
C883        C  0.42582161  0.46428797  0.76874181    -0.11900
C884        C  0.43695392  0.48820768  0.78123153    -0.10300
H885        H  0.42590490  0.53451038  0.72817784     0.07700
H886        H  0.40671468  0.49234302  0.70610597     0.11400
H887        H  0.42480985  0.44512378  0.78079396     0.11100
H888        H  0.44439111  0.48682529  0.80257512     0.07600
C889        C  0.34955366  0.50148629  0.95464341    -0.11500
C890        C  0.37164651  0.51924260  0.96190125     0.05700
C891        C  0.39032318  0.51081044  0.98307320    -0.10200
C892        C  0.38717022  0.48491061  0.99641435    -0.11900
C893        C  0.36515841  0.46705670  0.98893833    -0.01700
C894        C  0.34624558  0.47580241  0.96810101    -0.10800
C895        C  0.37625963  0.54563816  0.94622465     0.05700
H896        H  0.40781903  0.52394010  0.98877220     0.07600
H897        H  0.40203698  0.47878877  0.01238168     0.11100
H898        H  0.32899007  0.46260225  0.96185061     0.11400
H899        H  0.33485082  0.50747437  0.93847829     0.07700
C900        C  0.37584689  0.54564290  0.91683261    -0.11500
C901        C  0.38493323  0.56903618  0.90186561    -0.10800
C902        C  0.39421128  0.59296843  0.91596519    -0.01700
C903        C  0.39214862  0.59391872  0.94522062    -0.11900
C904        C  0.38341290  0.57036197  0.96026591    -0.10300
H905        H  0.37067770  0.52681887  0.90544907     0.07700
H906        H  0.38734770  0.56746564  0.87937069     0.11400
H907        H  0.40014467  0.61175019  0.95655727     0.11100
H908        H  0.38367600  0.57095926  0.98290562     0.07600
C909        C  0.60874915  0.64855056  0.87412752    -0.11500
C910        C  0.62080541  0.62453126  0.88610228     0.05700
C911        C  0.60360027  0.60335079  0.89656308    -0.10200
C912        C  0.57468941  0.60669360  0.89612701    -0.11900
C913        C  0.56266739  0.63144007  0.88552930    -0.01700
C914        C  0.57984914  0.65199165  0.87384593    -0.10800
C915        C  0.65128447  0.62278796  0.88921468     0.05700
H916        H  0.61254029  0.58456803  0.90560538     0.07600
H917        H  0.56185493  0.59039908  0.90522081     0.11100
H918        H  0.57105058  0.67113837  0.86549402     0.11400
H919        H  0.62172669  0.66529245  0.86616523     0.07700
C920        C  0.66845289  0.63140589  0.86713613    -0.11500
C921        C  0.69697571  0.63439680  0.87122217    -0.10800
C922        C  0.70889484  0.62877417  0.89749240    -0.01700
C923        C  0.69202634  0.61837033  0.91916546    -0.11900
C924        C  0.66327820  0.61537741  0.91502507    -0.10300
H925        H  0.65963521  0.63675968  0.84695746     0.07700
H926        H  0.70951468  0.64208998  0.85396643     0.11400
H927        H  0.70079536  0.61371807  0.93953039     0.11100
H928        H  0.65026235  0.60877756  0.93239516     0.07600
C929        C  0.34419304  0.89177938  0.36075698    -0.11500
C930        C  0.34390242  0.87778219  0.33503605     0.05700
C931        C  0.34491707  0.89337638  0.31008868    -0.10200
C932        C  0.35071195  0.92190137  0.31093581    -0.11900
C933        C  0.35544617  0.93486064  0.33677052    -0.01700
C934        C  0.34994343  0.92016971  0.36160157    -0.10800
C935        C  0.35027121  0.84766798  0.33476991     0.05700
H936        H  0.34407788  0.88301052  0.28998087     0.07600
H937        H  0.35407071  0.93305611  0.29149513     0.11100
H938        H  0.35255526  0.93001434  0.38181789     0.11400
H939        H  0.34332346  0.88036595  0.38030817     0.07700
C940        C  0.37262073  0.83823073  0.31813741    -0.11500
C941        C  0.38370262  0.81169513  0.32206281    -0.10800
C942        C  0.37256307  0.79390997  0.34255682    -0.01700
C943        C  0.34929624  0.80267218  0.35830216    -0.11900
C944        C  0.33831528  0.82949236  0.35454568    -0.10300
H945        H  0.38269494  0.85193222  0.30316491     0.07700
H946        H  0.40121680  0.80520543  0.30914345     0.11400
H947        H  0.34005189  0.78906986  0.37388770     0.11100
H948        H  0.32113094  0.83638381  0.36768652     0.07600
C949        C  0.94584428  0.95906525  0.19198486    -0.11500
C950        C  0.94698224  0.95262375  0.22066253     0.05700
C951        C  0.94984282  0.92434465  0.22853363    -0.10200
C952        C  0.95186216  0.90320731  0.20814585    -0.11900
C953        C  0.95104716  0.90992910  0.17949018    -0.01700
C954        C  0.94794721  0.93816033  0.17180846    -0.10800
C955        C  0.94365100  0.97553856  0.24170425     0.05700
H956        H  0.95074015  0.91858426  0.25041363     0.07600
H957        H  0.95422687  0.88169142  0.21478427     0.11100
H958        H  0.94683329  0.94423499  0.15000400     0.11400
H959        H  0.94270753  0.98037047  0.18497155     0.07700
C960        C  0.95443127  0.00234273  0.23609789    -0.11500
C961        C  0.94596903  0.02540816  0.25195007    -0.10800
C962        C  0.92716862  0.02216128  0.27426588    -0.01700
C963        C  0.91882689  0.99508487  0.28192380    -0.11900
C964        C  0.92690254  0.97195990  0.26572297    -0.10300
H965        H  0.96801348  0.00582640  0.21827835     0.07700
H966        H  0.95231638  0.04611845  0.24537102     0.11400
H967        H  0.90367110  0.99214900  0.29855943     0.11100
H968        H  0.91809813  0.95172830  0.27066562     0.07600
C969        C  0.88570759  0.76116519  0.04251330    -0.11500
C970        C  0.89550350  0.73368708  0.03870864     0.05700
C971        C  0.91923162  0.72480652  0.05375872    -0.10200
C972        C  0.93287743  0.74312467  0.07201831    -0.11900
C973        C  0.92278338  0.77046957  0.07580220    -0.01700
C974        C  0.89897008  0.77918046  0.06101474    -0.10800
C975        C  0.88071245  0.71476375  0.01904701     0.05700
H976        H  0.92713503  0.70370570  0.05156366     0.07600
H977        H  0.95125285  0.73592332  0.08319617     0.11100
H978        H  0.89103432  0.80030492  0.06308745     0.11400
H979        H  0.86800667  0.76905177  0.03075539     0.07700
C980        C  0.85146869  0.71656806  0.01649471    -0.11500
C981        C  0.83737295  0.70080152  0.99665021    -0.10800
C982        C  0.85197323  0.68225196  0.97917664    -0.01700
C983        C  0.88106209  0.67935178  0.98232459    -0.11900
C984        C  0.89538547  0.69567087  0.00198503    -0.10300
H985        H  0.83933527  0.73031951  0.02981929     0.07700
H986        H  0.81484919  0.70304885  0.99508445     0.11400
H987        H  0.89275403  0.66513830  0.96907644     0.11100
H988        H  0.91794717  0.69390062  0.00327170     0.07600
C989        C  0.88559394  0.92411907  0.03643359    -0.11500
C990        C  0.87558588  0.94595897  0.05323798     0.05700
C991        C  0.87272084  0.94151192  0.08222471    -0.10200
C992        C  0.88287312  0.91688272  0.09450411    -0.11900
C993        C  0.89596696  0.89652582  0.07788523    -0.01700
C994        C  0.89558128  0.89958154  0.04863819    -0.10800
C995        C  0.87135174  0.97414193  0.04102826     0.05700
H996        H  0.86496450  0.95802089  0.09564678     0.07600
H997        H  0.88328060  0.91519981  0.11710374     0.11100
H998        H  0.90554175  0.88411781  0.03537891     0.11400
H999        H  0.88739465  0.92676522  0.01399099     0.07700
C1000       C  0.89161592  0.98560705  0.02292596    -0.11500
C1001       C  0.88866047  0.01282148  0.01258244    -0.10800
C1002       C  0.86531256  0.02905398  0.02007843    -0.01700
C1003       C  0.84492767  0.01739494  0.03793507    -0.11900
C1004       C  0.84799008  0.99031175  0.04839762    -0.10300
H1005       H  0.91010945  0.97371567  0.01727727     0.07700
H1006       H  0.90466537  0.02116938  0.99885590     0.11400
H1007       H  0.82657588  0.02927978  0.04402624     0.11100
H1008       H  0.83206920  0.98196795  0.06221750     0.07600
C1009       C  0.01582416  0.87260283  0.97888710    -0.11500
C1010       C  0.03046899  0.84969584  0.96776749     0.05700
C1011       C  0.03076499  0.82434399  0.98256296    -0.10200
C1012       C  0.01731895  0.82227415  0.00858483    -0.11900
C1013       C  0.00420600  0.84579866  0.02048589    -0.01700
C1014       C  0.00304311  0.87076049  0.00508580    -0.10800
C1015       C  0.04809313  0.85399479  0.94268504     0.05700
H1016       H  0.04211135  0.80650131  0.97438453     0.07600
H1017       H  0.01861196  0.80281294  0.02010525     0.11100
H1018       H  0.99303731  0.88917341  0.01373220     0.11400
H1019       H  0.01564728  0.89245455  0.96797110     0.07700
C1020       C  0.03633644  0.86529069  0.91824701    -0.11500
C1021       C  0.05352668  0.87686952  0.89756612    -0.10800
C1022       C  0.08262653  0.87774148  0.90131107    -0.01700
C1023       C  0.09451729  0.86454964  0.92470305    -0.11900
C1024       C  0.07735874  0.85234393  0.94507961    -0.10300
H1025       H  0.01381137  0.86703386  0.91617628     0.07700
H1026       H  0.04394323  0.88766670  0.88007950     0.11400
H1027       H  0.11687802  0.86570452  0.92830423     0.11100
H1028       H  0.08682622  0.84412299  0.96396739     0.07600
C1029       C  0.24029141  0.93977921  0.00501051    -0.11500
C1030       C  0.24795097  0.93295643  0.97734028     0.05700
C1031       C  0.27337661  0.91871188  0.97292290    -0.10200
C1032       C  0.28906544  0.90885936  0.99556290    -0.11900
C1033       C  0.27997745  0.91339721  0.02312584    -0.01700
C1034       C  0.25618506  0.93003613  0.02770867    -0.10800
C1035       C  0.22801286  0.93747118  0.95368538     0.05700
H1036       H  0.28026163  0.91361469  0.95194174     0.07600
H1037       H  0.30698708  0.89550967  0.99152899     0.11100
H1038       H  0.24824809  0.93299074  0.04875271     0.11400
H1039       H  0.22076763  0.95051555  0.00927204     0.07700
C1040       C  0.22461750  0.91672852  0.93309459    -0.11500
C1041       C  0.20399787  0.91929606  0.91246474    -0.10800
C1042       C  0.18613748  0.94264003  0.91186416    -0.01700
C1043       C  0.19010886  0.96385190  0.93185914    -0.11900
C1044       C  0.21074228  0.96127505  0.95251625    -0.10300
H1045       H  0.23710373  0.89782633  0.93359096     0.07700
H1046       H  0.20143528  0.90249916  0.89756225     0.11400
H1047       H  0.17673961  0.98216567  0.93205298     0.11100
H1048       H  0.21289647  0.97775613  0.96783431     0.07600
C1049       C  0.32832609  0.01243278  0.21958485    -0.11500
C1050       C  0.31497817  0.98669205  0.22438605     0.05700
C1051       C  0.30760541  0.97990301  0.25220939    -0.10200
C1052       C  0.31538186  0.99722347  0.27460942    -0.11900
C1053       C  0.33080262  0.02170199  0.26983455    -0.01700
C1054       C  0.33627843  0.02954721  0.24197996    -0.10800
C1055       C  0.31074128  0.96616085  0.20095824     0.05700
H1056       H  0.29768712  0.96017354  0.25698183     0.07600
H1057       H  0.31193778  0.98993987  0.29581419     0.11100
H1058       H  0.34889609  0.04781880  0.23766051     0.11400
H1059       H  0.33388458  0.01878540  0.19855338     0.07700
C1060       C  0.28750596  0.94819895  0.20080820    -0.11500
C1061       C  0.28463488  0.92762884  0.18018647    -0.10800
C1062       C  0.30493412  0.92418085  0.15898691    -0.01700
C1063       C  0.32781980  0.94256593  0.15858269    -0.11900
C1064       C  0.33066292  0.96327244  0.17923841    -0.10300
H1065       H  0.27149274  0.94989540  0.21677226     0.07700
H1066       H  0.26664689  0.91395294  0.18128159     0.11400
H1067       H  0.34388837  0.94054129  0.14269960     0.11100
H1068       H  0.34909204  0.97635429  0.17871687     0.07600
C1069       C  0.41238146  0.74239554  0.98087802    -0.11500
C1070       C  0.38652667  0.75248423  0.97114638     0.05700
C1071       C  0.37714068  0.74410310  0.94460994    -0.10200
C1072       C  0.39339647  0.72609226  0.92811556    -0.11900
C1073       C  0.41922194  0.71590196  0.93797484    -0.01700
C1074       C  0.42848882  0.72429369  0.96454635    -0.10800
C1075       C  0.36943340  0.77136387  0.98897860     0.05700
H1076       H  0.35736370  0.75171899  0.93651014     0.07600
H1077       H  0.38569184  0.72005315  0.90772873     0.11100
H1078       H  0.44825844  0.71684924  0.97281178     0.11400
H1079       H  0.41997235  0.74816595  0.00139084     0.07700
C1080       C  0.34049741  0.76711589  0.99213282    -0.11500
C1081       C  0.32484355  0.78379879  0.01043251    -0.10800
C1082       C  0.33774229  0.80531684  0.02562306    -0.01700
C1083       C  0.36649653  0.81005962  0.02185911    -0.11900
C1084       C  0.38220160  0.79315472  0.00387051    -0.10300
H1085       H  0.33013319  0.75038986  0.98105061     0.07700
H1086       H  0.30263659  0.77982467  0.01273893     0.11400
H1087       H  0.37697303  0.82651545  0.03323990     0.11100
H1088       H  0.40440652  0.79711362  0.00160079     0.07600
C1089       C  0.38696273  0.80698371  0.19048284    -0.11500
C1090       C  0.38893268  0.77851836  0.18379698     0.05700
C1091       C  0.37995571  0.76936047  0.15742856    -0.10200
C1092       C  0.36752179  0.78821910  0.13870908    -0.11900
C1093       C  0.36327477  0.81615591  0.14657325    -0.01700
C1094       C  0.37384122  0.82559307  0.17217075    -0.10800
C1095       C  0.39534789  0.75842661  0.20635026     0.05700
H1096       H  0.38104643  0.74741155  0.15207079     0.07600
H1097       H  0.35894412  0.78048413  0.11925512     0.11100
H1098       H  0.37026583  0.84695197  0.17875733     0.11400
H1099       H  0.39338152  0.81434184  0.21089607     0.07700
C1100       C  0.42094761  0.75962171  0.22060590    -0.11500
C1101       C  0.42435543  0.74548395  0.24602740    -0.10800
C1102       C  0.40189059  0.73072063  0.25794726    -0.01700
C1103       C  0.37685525  0.72820257  0.24281410    -0.11900
C1104       C  0.37374206  0.74168387  0.21703948    -0.10300
H1105       H  0.43769922  0.77273076  0.21283520     0.07700
H1106       H  0.44374946  0.74801485  0.25743328     0.11400
H1107       H  0.35920723  0.71703785  0.25161531     0.11100
H1108       H  0.35367981  0.74086339  0.20652828     0.07600
C1109       C  0.15525732  0.89031840  0.09357341    -0.11500
C1110       C  0.14519636  0.88950411  0.12115588     0.05700
C1111       C  0.16371844  0.88460592  0.14326064    -0.10200
C1112       C  0.19157953  0.87814396  0.13769003    -0.11900
C1113       C  0.20112674  0.87625066  0.10992409    -0.01700
C1114       C  0.18316191  0.88371762  0.08794796    -0.10800
C1115       C  0.11508360  0.88671136  0.12586024     0.05700
H1116       H  0.15613364  0.88376984  0.16461844     0.07600
H1117       H  0.20521889  0.87301091  0.15504641     0.11100
H1118       H  0.19010249  0.88255832  0.06639725     0.11400
H1119       H  0.14100756  0.89362433  0.07625998     0.07700
C1120       C  0.09625668  0.90700462  0.11611044    -0.11500
C1121       C  0.06772675  0.90093000  0.11479578    -0.10800
C1122       C  0.05823239  0.87424940  0.12235313    -0.01700
C1123       C  0.07684668  0.85465744  0.13363109    -0.11900
C1124       C  0.10510003  0.86098959  0.13570591    -0.10300
H1125       H  0.10381324  0.92682552  0.10822316     0.07700
H1126       H  0.05346728  0.91619626  0.10593770     0.11400
H1127       H  0.06969784  0.83403370  0.13963133     0.11100
H1128       H  0.11947829  0.84498228  0.14293007     0.07600
C1129       C  0.49564036  0.77431492  0.83437634    -0.11500
C1130       C  0.52092692  0.77064223  0.81961448     0.05700
C1131       C  0.52838380  0.74316416  0.81170689    -0.10200
C1132       C  0.51210888  0.72004834  0.82009337    -0.11900
C1133       C  0.48781070  0.72380916  0.83633176    -0.01700
C1134       C  0.47947328  0.75128719  0.84269941    -0.10800
C1135       C  0.54023450  0.79501761  0.81432517     0.05700
H1136       H  0.54780364  0.73931094  0.80062389     0.07600
H1137       H  0.51975606  0.69915347  0.81584225     0.11100
H1138       H  0.46133764  0.75484479  0.85588475     0.11400
H1139       H  0.48883231  0.79501853  0.84049738     0.07700
C1140       C  0.54385166  0.81610534  0.83461521    -0.11500
C1141       C  0.56325353  0.83786877  0.83062929    -0.10800
C1142       C  0.57961735  0.83938656  0.80615627    -0.01700
C1143       C  0.57536533  0.81879912  0.78550550    -0.11900
C1144       C  0.55610809  0.79697243  0.78956114    -0.10300
H1145       H  0.53241011  0.81525414  0.85416235     0.07700
H1146       H  0.56605094  0.85303064  0.84715737     0.11400
H1147       H  0.58755265  0.81905076  0.76638933     0.11100
H1148       H  0.55380310  0.78145474  0.77328739     0.07600
C1149       C  0.74746464  0.99262502  0.84794497    -0.11500
C1150       C  0.73928492  0.00179776  0.87460398     0.05700
C1151       C  0.71341452  0.99295871  0.88553095    -0.10200
C1152       C  0.69595575  0.97549013  0.87001991    -0.11900
C1153       C  0.70411340  0.96637996  0.84331975    -0.01700
C1154       C  0.73013560  0.97503319  0.83252919    -0.10800
C1155       C  0.75761196  0.02059131  0.89093857     0.05700
H1156       H  0.70645743  0.99995230  0.90595676     0.07600
H1157       H  0.67607835  0.96916221  0.87889701     0.11100
H1158       H  0.73709312  0.96835298  0.81200997     0.11400
H1159       H  0.76741848  0.99883043  0.83913810     0.07700
C1160       C  0.76137843  0.01610555  0.91972780    -0.11500
C1161       C  0.77790139  0.03423115  0.93536609    -0.10800
C1162       C  0.79080237  0.05735456  0.92271625    -0.01700
C1163       C  0.78742243  0.06167498  0.89382902    -0.11900
C1164       C  0.77109195  0.04331802  0.87809224    -0.10300
H1165       H  0.75162485  0.99860328  0.93006807     0.07700
H1166       H  0.78012753  0.03035788  0.95767725     0.11400
H1167       H  0.79719398  0.07920179  0.88354935     0.11100
H1168       H  0.76842110  0.04734416  0.85585892     0.07600
C1169       C  0.73317174  0.83307247  0.87645763    -0.11500
C1170       C  0.72416681  0.80583462  0.88229813     0.05700
C1171       C  0.69557368  0.79947806  0.88101943    -0.10200
C1172       C  0.67642426  0.81946603  0.87177846    -0.11900
C1173       C  0.68553030  0.84625521  0.86422772    -0.01700
C1174       C  0.71381715  0.85335038  0.86774738    -0.10800
C1175       C  0.74420261  0.78299022  0.88728877     0.05700
H1176       H  0.68837089  0.77847141  0.88535176     0.07600
H1177       H  0.65483350  0.81341095  0.86848270     0.11100
H1178       H  0.72133535  0.87366333  0.86118887     0.11400
H1179       H  0.75522055  0.83820166  0.87732393     0.07700
C1180       C  0.75836660  0.77057418  0.86468113    -0.11500
C1181       C  0.77174023  0.74467048  0.86803851    -0.10800
C1182       C  0.77089076  0.73097750  0.89402900    -0.01700
C1183       C  0.75858353  0.74467316  0.91703546    -0.11900
C1184       C  0.74518606  0.77034722  0.91363270    -0.10300
H1185       H  0.75739767  0.77997502  0.84407831     0.07700
H1186       H  0.78097606  0.73454901  0.84997733     0.11400
H1187       H  0.75788690  0.73476212  0.93740748     0.11100
H1188       H  0.73418355  0.77957971  0.93118964     0.07600
C1189       C  0.78238029  0.84978276  0.74761021    -0.11500
C1190       C  0.79643495  0.87238593  0.73499778     0.05700
C1191       C  0.78472121  0.89915496  0.73688529    -0.10200
C1192       C  0.75880011  0.90311197  0.74978345    -0.11900
C1193       C  0.74379298  0.88035546  0.76088201    -0.01700
C1194       C  0.75619297  0.85372953  0.76047624    -0.10800
C1195       C  0.82156192  0.86765472  0.71735383     0.05700
H1196       H  0.79523164  0.91689190  0.72753282     0.07600
H1197       H  0.74992968  0.92396681  0.75006286     0.11100
H1198       H  0.74503096  0.83582944  0.76865762     0.11400
H1199       H  0.79093462  0.82885264  0.74614923     0.07700
C1200       C  0.84411115  0.85155718  0.72716430    -0.11500
C1201       C  0.86555159  0.84343415  0.70888066    -0.10800
C1202       C  0.86453340  0.85093355  0.68048591    -0.01700
C1203       C  0.84296261  0.86847326  0.67107654    -0.11900
C1204       C  0.82181798  0.87708237  0.68946169    -0.10300
H1205       H  0.84437455  0.84410752  0.74856265     0.07700
H1206       H  0.88149377  0.82906768  0.71630009     0.11400
H1207       H  0.84120452  0.87354975  0.64905471     0.11100
H1208       H  0.80449241  0.88928176  0.68133684     0.07600
C1209       C  0.75156346  0.80788097  0.51848262    -0.11500
C1210       C  0.77939829  0.81416962  0.51076931     0.05700
C1211       C  0.78390365  0.82726779  0.48479346    -0.10200
C1212       C  0.76129280  0.83558729  0.46800392    -0.11900
C1213       C  0.73348301  0.83093010  0.47652331    -0.01700
C1214       C  0.72888588  0.81629461  0.50161664    -0.10800
C1215       C  0.80339378  0.80873881  0.53037769     0.05700
H1216       H  0.80495611  0.83213146  0.47791829     0.07600
H1217       H  0.76548347  0.84768017  0.44929476     0.11100
H1218       H  0.70774688  0.81356856  0.50941218     0.11400
H1219       H  0.74718080  0.79813671  0.53846154     0.07700
C1220       C  0.80446666  0.78427932  0.54665488    -0.11500
C1221       C  0.82623257  0.77978752  0.56584807    -0.10800
C1222       C  0.84755698  0.79973850  0.56962873    -0.01700
C1223       C  0.84677342  0.82404508  0.55306184    -0.11900
C1224       C  0.82506314  0.82844150  0.53366512    -0.10300
H1225       H  0.78839153  0.76852204  0.54457708     0.07700
H1226       H  0.82597472  0.76082028  0.57820253     0.11400
H1227       H  0.86261697  0.83998591  0.55549636     0.11100
H1228       H  0.82479775  0.84773050  0.52182335     0.07600
C1229       C  0.54800206  0.80008510  0.46156346    -0.11500
C1230       C  0.54913784  0.78048353  0.43974224     0.05700
C1231       C  0.57378112  0.77894696  0.42352861    -0.10200
C1232       C  0.59606542  0.79755136  0.42811216    -0.11900
C1233       C  0.59444398  0.81784198  0.44933647    -0.01700
C1234       C  0.57033993  0.81833804  0.46639218    -0.10800
C1235       C  0.52379094  0.76374322  0.43227759     0.05700
H1236       H  0.57526713  0.76429247  0.40637287     0.07600
H1237       H  0.61419177  0.79660653  0.41448863     0.11100
H1238       H  0.56814932  0.83370900  0.48283877     0.11400
H1239       H  0.52948279  0.80173679  0.47458328     0.07700
C1240       C  0.49735685  0.77676571  0.43110935    -0.11500
C1241       C  0.47411634  0.76263682  0.42041801    -0.10800
C1242       C  0.47646600  0.73491208  0.41105566    -0.01700
C1243       C  0.50234702  0.72113069  0.41402515    -0.11900
C1244       C  0.52584749  0.73549092  0.42428794    -0.10300
H1245       H  0.49496983  0.79850980  0.43685515     0.07700
H1246       H  0.45452952  0.77389211  0.41813364     0.11400
H1247       H  0.50490894  0.69993913  0.40655941     0.11100
H1248       H  0.54583542  0.72477459  0.42516354     0.07600
C1249       C  0.76612222  0.96990711  0.41401779    -0.11500
C1250       C  0.76803322  0.96933837  0.38467357     0.05700
C1251       C  0.75036893  0.95105296  0.36985643    -0.10200
C1252       C  0.73116615  0.93402442  0.38408540    -0.11900
C1253       C  0.72890769  0.93537734  0.41331182    -0.01700
C1254       C  0.74663423  0.95340077  0.42808833    -0.10800
C1255       C  0.78819261  0.98801393  0.36985660     0.05700
H1256       H  0.75096599  0.95026834  0.34724107     0.07600
H1257       H  0.71763104  0.92034988  0.37224209     0.11100
H1258       H  0.74565121  0.95450859  0.45070279     0.11400
H1259       H  0.77983356  0.98301938  0.42626151     0.07700
C1260       C  0.79406346  0.01481501  0.38038243    -0.11500
C1261       C  0.81324307  0.03227347  0.36691558    -0.10800
C1262       C  0.82680493  0.02358406  0.34232846    -0.01700
C1263       C  0.82083441  0.99695162  0.33158184    -0.11900
C1264       C  0.80188625  0.97930843  0.34526622    -0.10300
H1265       H  0.78346671  0.02260543  0.39884365     0.07700
H1266       H  0.81697170  0.05286371  0.37543954     0.11400
H1267       H  0.83086942  0.98969865  0.31258452     0.11100
H1268       H  0.79823392  0.95873228  0.33671661     0.07600
C1269       C  0.57700012  0.96202033  0.38159480    -0.11500
C1270       C  0.55464067  0.94685540  0.37025051     0.05700
C1271       C  0.55769262  0.91793681  0.36631580    -0.10200
C1272       C  0.58162459  0.90404592  0.37597304    -0.11900
C1273       C  0.60313918  0.91892682  0.38910744    -0.01700
C1274       C  0.60116226  0.94814889  0.39079699    -0.10800
C1275       C  0.52697380  0.96020027  0.36575648     0.05700
H1276       H  0.54057252  0.90578372  0.35794508     0.07600
H1277       H  0.58217370  0.88141855  0.37555141     0.11100
H1278       H  0.61702614  0.95989443  0.40182145     0.11400
H1279       H  0.57505960  0.98433220  0.38484454     0.07700
C1280       C  0.51327160  0.97384330  0.38795031    -0.11500
C1281       C  0.48570364  0.98348332  0.38490846    -0.10800
C1282       C  0.47139332  0.97976962  0.35953222    -0.01700
C1283       C  0.48555867  0.96692078  0.33708219    -0.11900
C1284       C  0.51297545  0.95708644  0.34022966    -0.10300
H1285       H  0.52357475  0.97613854  0.40798010     0.07700
H1286       H  0.47545710  0.99338976  0.40253087     0.11400
H1287       H  0.47530451  0.96406538  0.31711250     0.11100
H1288       H  0.52315202  0.94666231  0.32286140     0.07600
C1289       C  0.62039332  0.88676372  0.59619707    -0.11500
C1290       C  0.64275292  0.87781813  0.61270100     0.05700
C1291       C  0.66708455  0.86699430  0.60017962    -0.10200
C1292       C  0.66972736  0.86693338  0.57114527    -0.11900
C1293       C  0.64788989  0.87748188  0.55459650    -0.01700
C1294       C  0.62281618  0.88633754  0.56734283    -0.10800
C1295       C  0.64127664  0.88140727  0.64292480     0.05700
H1296       H  0.68452108  0.85995546  0.61288665     0.07600
H1297       H  0.68917616  0.85991591  0.56178148     0.11100
H1298       H  0.60548813  0.89438075  0.55510875     0.11400
H1299       H  0.60139335  0.89479489  0.60568158     0.07700
C1300       C  0.63514035  0.90775132  0.65429609    -0.11500
C1301       C  0.63612883  0.91174067  0.68311573    -0.10800
C1302       C  0.64309302  0.88930100  0.70066049    -0.01700
C1303       C  0.64770186  0.86264589  0.68914194    -0.11900
C1304       C  0.64705184  0.85879917  0.66044862    -0.10300
H1305       H  0.63070025  0.92542935  0.64078925     0.07700
H1306       H  0.63256100  0.93243804  0.69151017     0.11400
H1307       H  0.65291751  0.84486217  0.70221225     0.11100
H1308       H  0.65149681  0.83833342  0.65187526     0.07600
C1309       C  0.48137015  0.23139680  0.08884919    -0.11500
C1310       C  0.48364962  0.25792358  0.07631447     0.05700
C1311       C  0.51041999  0.26968579  0.07329531    -0.10200
C1312       C  0.53409113  0.25616063  0.08423593    -0.11900
C1313       C  0.53172786  0.23012795  0.09768837    -0.01700
C1314       C  0.50523655  0.21746364  0.09909885    -0.10800
C1315       C  0.45826837  0.27454807  0.06862408     0.05700
H1316       H  0.51280598  0.29019182  0.06398637     0.07600
H1317       H  0.55413017  0.26666485  0.08338157     0.11100
H1318       H  0.50267338  0.19778481  0.11001834     0.11400
H1319       H  0.46099915  0.22187153  0.09149510     0.07700
C1320       C  0.45600317  0.28719688  0.04217272    -0.11500
C1321       C  0.43382229  0.30556871  0.03615002    -0.10800
C1322       C  0.41357146  0.31219537  0.05661663    -0.01700
C1323       C  0.41532250  0.29866992  0.08275134    -0.11900
C1324       C  0.43729027  0.27996172  0.08860593    -0.10300
H1325       H  0.47181949  0.28335539  0.02635387     0.07700
H1326       H  0.43325264  0.31552388  0.01579970     0.11400
H1327       H  0.40028552  0.30332116  0.09909415     0.11100
H1328       H  0.43864603  0.27074182  0.10926604     0.07600
C1329       C  0.68305253  0.17306333  0.04303321    -0.11500
C1330       C  0.70873998  0.18765699  0.04472340     0.05700
C1331       C  0.71263674  0.20512092  0.06816232    -0.10200
C1332       C  0.69223513  0.20714249  0.08930945    -0.11900
C1333       C  0.66683553  0.19247919  0.08743001    -0.01700
C1334       C  0.66233144  0.17578450  0.06380368    -0.10800
C1335       C  0.73156375  0.18361984  0.02293434     0.05700
H1336       H  0.73148382  0.21735006  0.07042896     0.07600
H1337       H  0.69632661  0.22030864  0.10722630     0.11100
H1338       H  0.64318845  0.16385344  0.06192922     0.11400
H1339       H  0.67902081  0.15870025  0.02614349     0.07700
C1340       C  0.76017884  0.18772053  0.02935482    -0.11500
C1341       C  0.78143570  0.18047043  0.01021428    -0.10800
C1342       C  0.77488585  0.16834925  0.98431536    -0.01700
C1343       C  0.74651703  0.16580367  0.97714473    -0.11900
C1344       C  0.72524087  0.17382503  0.99582883    -0.10300
H1345       H  0.76654156  0.19474069  0.04984243     0.07700
H1346       H  0.80307238  0.18176104  0.01684785     0.11400
H1347       H  0.74076033  0.15578899  0.95770046     0.11100
H1348       H  0.70380239  0.17116851  0.98918581     0.07600
C1349       C  0.52131416  0.11569190  0.22480214    -0.11500
C1350       C  0.49332931  0.12420368  0.22858885     0.05700
C1351       C  0.48377179  0.14812481  0.21424057    -0.10200
C1352       C  0.50184628  0.16315925  0.19673218    -0.11900
C1353       C  0.52962573  0.15424365  0.19280834    -0.01700
C1354       C  0.53909639  0.13030913  0.20690534    -0.10800
C1355       C  0.47450535  0.10802396  0.24746722     0.05700
H1356       H  0.46229693  0.15512844  0.21630996     0.07600
H1357       H  0.49407352  0.18162894  0.18613217     0.11100
H1358       H  0.56059276  0.12331503  0.20474902     0.11400
H1359       H  0.52977957  0.09796205  0.23606955     0.07700
C1360       C  0.47777179  0.07891159  0.25001497    -0.11500
C1361       C  0.46119849  0.06364390  0.26851605    -0.10800
C1362       C  0.44042188  0.07692146  0.28450751    -0.01700
C1363       C  0.43654478  0.10588453  0.28163171    -0.11900
C1364       C  0.45358170  0.12133586  0.26347142    -0.10300
H1365       H  0.49297653  0.06772334  0.23747158     0.07700
H1366       H  0.46426374  0.04124901  0.26981133     0.11400
H1367       H  0.42053979  0.11661409  0.29361741     0.11100
H1368       H  0.45062142  0.14373351  0.26235069     0.07600
C1369       C  0.67089995  0.11015329  0.23201302    -0.11500
C1370       C  0.69548746  0.10202065  0.21821082     0.05700
C1371       C  0.69695296  0.10387280  0.18892524    -0.10200
C1372       C  0.67527115  0.11670809  0.17393889    -0.11900
C1373       C  0.65214258  0.12785370  0.18824261    -0.01700
C1374       C  0.64927924  0.12289841  0.21708069    -0.10800
C1375       C  0.72144205  0.09851821  0.23434826     0.05700
H1376       H  0.71602987  0.09809430  0.17805588     0.07600
H1377       H  0.67815197  0.12087489  0.15183167     0.11100
H1378       H  0.63167659  0.13159972  0.22849258     0.11400
H1379       H  0.66956907  0.10906328  0.25461963     0.07700
C1380       C  0.73342149  0.12218727  0.24666356    -0.11500
C1381       C  0.75994344  0.12067054  0.25866250    -0.10800
C1382       C  0.77472336  0.09530339  0.25901393    -0.01700
C1383       C  0.76207814  0.07121915  0.24799100    -0.11900
C1384       C  0.73569080  0.07291235  0.23534869    -0.10300
H1385       H  0.72273358  0.14217968  0.24580907     0.07700
H1386       H  0.76922974  0.13950318  0.26699922     0.11400
H1387       H  0.77320505  0.05146694  0.24781143     0.11100
H1388       H  0.72674142  0.05453730  0.22574450     0.07600
C1389       C  0.63365170  0.31900338  0.30601485    -0.11500
C1390       C  0.62215869  0.29422957  0.31662592     0.05700
C1391       C  0.62281074  0.28922548  0.34555752    -0.10200
C1392       C  0.63585414  0.30829423  0.36353261    -0.11900
C1393       C  0.64910837  0.33211974  0.35262656    -0.01700
C1394       C  0.64727993  0.33762640  0.32380029    -0.10800
C1395       C  0.61314974  0.27240315  0.29684344     0.05700
H1396       H  0.61428205  0.27005443  0.35402977     0.07600
H1397       H  0.63746039  0.30335310  0.38559018     0.11100
H1398       H  0.65759138  0.35569790  0.31485880     0.11400
H1399       H  0.63362471  0.32304303  0.28369831     0.07700
C1400       C  0.58960351  0.27657612  0.27983359    -0.11500
C1401       C  0.58467434  0.25894589  0.25704586    -0.10800
C1402       C  0.60376232  0.23752770  0.25045496    -0.01700
C1403       C  0.62643212  0.23243305  0.26841149    -0.11900
C1404       C  0.63087104  0.24952846  0.29167389    -0.10300
H1405       H  0.57595669  0.29436650  0.28328142     0.07700
H1406       H  0.56742834  0.26366737  0.24310950     0.11400
H1407       H  0.64162282  0.21631270  0.26346478     0.11100
H1408       H  0.64936368  0.24624606  0.30436396     0.07600
C1409       C  0.70744233  0.49322539  0.25784442    -0.11500
C1410       C  0.69708961  0.50002304  0.28468865     0.05700
C1411       C  0.67978259  0.52371025  0.28727669    -0.10200
C1412       C  0.67070335  0.53829447  0.26354254    -0.11900
C1413       C  0.67896744  0.52988879  0.23659882    -0.01700
C1414       C  0.69844693  0.50802807  0.23403793    -0.10800
C1415       C  0.70164032  0.48083621  0.30914495     0.05700
H1416       H  0.67190867  0.53005180  0.30755998     0.07600
H1417       H  0.65529013  0.55476510  0.26606484     0.11100
H1418       H  0.70447174  0.50055500  0.21350252     0.11400
H1419       H  0.72064975  0.47505148  0.25489184     0.07700
C1420       C  0.67976486  0.47545265  0.32830344    -0.11500
C1421       C  0.68265049  0.45506532  0.34926922    -0.10800
C1422       C  0.70747080  0.43941853  0.35166502    -0.01700
C1423       C  0.72981528  0.44573461  0.33339010    -0.11900
C1424       C  0.72693009  0.46609055  0.31244365    -0.10300
H1425       H  0.65979546  0.48601487  0.32628684     0.07700
H1426       H  0.66497155  0.45071535  0.36279507     0.11400
H1427       H  0.74934855  0.43424127  0.33462147     0.11100
H1428       H  0.74437755  0.46988108  0.29845560     0.07600
C1429       C  0.72451648  0.52852508  0.05567183    -0.11500
C1430       C  0.73880343  0.55405545  0.05318769     0.05700
C1431       C  0.73379027  0.57466189  0.07364765    -0.10200
C1432       C  0.71441862  0.57024871  0.09536301    -0.11900
C1433       C  0.69961102  0.54497202  0.09747722    -0.01700
C1434       C  0.70535880  0.52398002  0.07759166    -0.10800
C1435       C  0.75776128  0.55998782  0.02877990     0.05700
H1436       H  0.74407190  0.59474355  0.07226192     0.07600
H1437       H  0.71044673  0.58699770  0.11004257     0.11100
H1438       H  0.69429009  0.50429190  0.07836038     0.11400
H1439       H  0.72795208  0.51212948  0.04047205     0.07700
C1440       C  0.78264370  0.57512044  0.03257592    -0.11500
C1441       C  0.79800488  0.58489548  0.00956437    -0.10800
C1442       C  0.78910570  0.57971187  0.98205330    -0.01700
C1443       C  0.76543036  0.56283734  0.97808991    -0.11900
C1444       C  0.74999410  0.55293020  0.00121458    -0.10300
H1445       H  0.78953225  0.58060828  0.05341877     0.07700
H1446       H  0.81572679  0.59844800  0.01325824     0.11400
H1447       H  0.75744600  0.55939381  0.95718096     0.11100
H1448       H  0.73084843  0.54152236  0.99744301     0.07600
C1449       C  0.56583327  0.61948468  0.25848798    -0.11500
C1450       C  0.53679752  0.61449175  0.25926283     0.05700
C1451       C  0.52539196  0.59561780  0.23988797    -0.10200
C1452       C  0.54262213  0.58136184  0.22098863    -0.11900
C1453       C  0.57165866  0.58589397  0.22067431    -0.01700
C1454       C  0.58304239  0.60545457  0.23930242    -0.10800
C1455       C  0.51841908  0.62868518  0.28019416     0.05700
H1456       H  0.50307699  0.59178812  0.23931630     0.07600
H1457       H  0.53321675  0.56659270  0.20671411     0.11100
H1458       H  0.60539076  0.60919576  0.23971605     0.11400
H1459       H  0.57542181  0.63365092  0.27322472     0.07700
C1460       C  0.49548258  0.61460334  0.29218027    -0.11500
C1461       C  0.47735153  0.62829390  0.31070029    -0.10800
C1462       C  0.48174443  0.65639737  0.31778697    -0.01700
C1463       C  0.50517765  0.67021901  0.30657575    -0.11900
C1464       C  0.52327378  0.65655206  0.28801135    -0.10300
H1465       H  0.49142797  0.59295712  0.28716630     0.07700
H1466       H  0.45951748  0.61702881  0.31895403     0.11400
H1467       H  0.50916099  0.69189892  0.31155929     0.11100
H1468       H  0.54054087  0.66815471  0.27908911     0.07600
C1469       C  0.51468224  0.59193678  0.01810401    -0.11500
C1470       C  0.53007380  0.61323513  0.03126488     0.05700
C1471       C  0.52890546  0.64035237  0.02039617    -0.10200
C1472       C  0.51400021  0.64585811  0.99600493    -0.11900
C1473       C  0.50028919  0.62428723  0.98150534    -0.01700
C1474       C  0.49992546  0.59739764  0.99327638    -0.10800
C1475       C  0.54901042  0.60698127  0.05496575     0.05700
H1476       H  0.54024794  0.65715805  0.03036062     0.07600
H1477       H  0.51443046  0.66692103  0.98768227     0.11100
H1478       H  0.48974096  0.58037004  0.98250102     0.11400
H1479       H  0.51537082  0.57078463  0.02616386     0.07700
C1480       C  0.53950848  0.59161188  0.07808982    -0.11500
C1481       C  0.55811228  0.58391760  0.09930355    -0.10800
C1482       C  0.58651039  0.59114377  0.09751267    -0.01700
C1483       C  0.59595792  0.60712178  0.07484723    -0.11900
C1484       C  0.57723591  0.61534655  0.05389949    -0.10300
H1485       H  0.51788401  0.58500195  0.07936957     0.07700
H1486       H  0.55070109  0.57082987  0.11628178     0.11400
H1487       H  0.61798065  0.61207022  0.07272032     0.11100
H1488       H  0.58510044  0.62698777  0.03609797     0.07600
C1489       C  0.65444494  0.39561214  0.14021345    -0.11500
C1490       C  0.65323884  0.38194607  0.16613700     0.05700
C1491       C  0.65145743  0.39771988  0.19078157    -0.10200
C1492       C  0.64814790  0.42659771  0.18939721    -0.11900
C1493       C  0.64629252  0.43999904  0.16330878    -0.01700
C1494       C  0.65085698  0.42449279  0.13878906    -0.10800
C1495       C  0.64766040  0.35180694  0.16702435     0.05700
H1496       H  0.65060706  0.38746171  0.21099378     0.07600
H1497       H  0.64497046  0.43807741  0.20864747     0.11100
H1498       H  0.64992747  0.43441846  0.11842876     0.11400
H1499       H  0.65564292  0.38376242  0.12096982     0.07700
C1500       C  0.62358275  0.34261360  0.18100138    -0.11500
C1501       C  0.61534622  0.31495892  0.17916308    -0.10800
C1502       C  0.63111731  0.29577009  0.16345116    -0.01700
C1503       C  0.65578361  0.30467838  0.15011244    -0.11900
C1504       C  0.66385354  0.33269955  0.15164272    -0.10300
H1505       H  0.61048554  0.35711051  0.19253297     0.07700
H1506       H  0.59646432  0.30867423  0.19006157     0.11400
H1507       H  0.66848980  0.29016464  0.13819843     0.11100
H1508       H  0.68243587  0.33955796  0.14059877     0.07600
C1509       C  0.49702512  0.48691174  0.10921726    -0.11500
C1510       C  0.48450075  0.46840475  0.12846563     0.05700
C1511       C  0.49868015  0.46246713  0.15349465    -0.10200
C1512       C  0.52515161  0.47367146  0.15863809    -0.11900
C1513       C  0.53829053  0.49113633  0.13888680    -0.01700
C1514       C  0.52366022  0.49811864  0.11434473    -0.10800
C1515       C  0.45811862  0.45336460  0.12138895     0.05700
H1516       H  0.48948945  0.44869248  0.16895861     0.07600
H1517       H  0.53559832  0.46808932  0.17794758     0.11100
H1518       H  0.53303979  0.51172069  0.09883351     0.11400
H1519       H  0.48678186  0.49178621  0.08961823     0.07700
C1520       C  0.43622089  0.46681259  0.10695230    -0.11500
C1521       C  0.41341910  0.45147410  0.09685752    -0.10800
C1522       C  0.41202549  0.42248944  0.10112740    -0.01700
C1523       C  0.43305461  0.40925840  0.11670590    -0.11900
C1524       C  0.45574595  0.42455298  0.12694282    -0.10300
H1525       H  0.43726052  0.48897938  0.10253741     0.07700
H1526       H  0.39775672  0.46193058  0.08420317     0.11400
H1527       H  0.43281921  0.38679146  0.11943641     0.11100
H1528       H  0.47237250  0.41341487  0.13759916     0.07600
C1529       C  0.49672589  0.24359971  0.70129352    -0.11500
C1530       C  0.49312257  0.26912685  0.68672184     0.05700
C1531       C  0.50807140  0.27289625  0.66167699    -0.10200
C1532       C  0.52471425  0.25156097  0.65072782    -0.11900
C1533       C  0.52685433  0.22545137  0.66411792    -0.01700
C1534       C  0.51347271  0.22193212  0.69008693    -0.10800
C1535       C  0.47215351  0.29087847  0.69560699     0.05700
H1536       H  0.50560282  0.29176554  0.64941031     0.07600
H1537       H  0.53451787  0.25487162  0.63052923     0.11100
H1538       H  0.51431787  0.20192827  0.70067385     0.11400
H1539       H  0.48580286  0.23998657  0.72082161     0.07700
C1540       C  0.44609857  0.28308376  0.70690898    -0.11500
C1541       C  0.42480657  0.30295839  0.71088786    -0.10800
C1542       C  0.42888164  0.33124243  0.70372871    -0.01700
C1543       C  0.45537940  0.33936915  0.69395728    -0.11900
C1544       C  0.47670881  0.31948474  0.68999753    -0.10300
H1545       H  0.44155952  0.26138418  0.71131488     0.07700
H1546       H  0.40472561  0.29592715  0.71873391     0.11400
H1547       H  0.45934165  0.36092579  0.68839694     0.11100
H1548       H  0.49664288  0.32650392  0.68183134     0.07600
C1549       C  0.59851103  0.02981064  0.77346084    -0.11500
C1550       C  0.57930797  0.02656945  0.75142609     0.05700
C1551       C  0.56854735  0.99955541  0.74653021    -0.10200
C1552       C  0.57842779  0.97625345  0.76166962    -0.11900
C1553       C  0.59923190  0.97940766  0.78208858    -0.01700
C1554       C  0.60844314  0.00656832  0.78839630    -0.10800
C1555       C  0.57269272  0.05050258  0.73199514     0.05700
H1556       H  0.55398236  0.99603600  0.72961362     0.07600
H1557       H  0.57161281  0.95555408  0.75570662     0.11100
H1558       H  0.62486164  0.00958947  0.80369187     0.11400
H1559       H  0.60690132  0.05020547  0.77835372     0.07700
C1560       C  0.54615354  0.05319940  0.71950270    -0.11500
C1561       C  0.54112306  0.07345555  0.69877578    -0.10800
C1562       C  0.56244734  0.09174867  0.68988505    -0.01700
C1563       C  0.58855139  0.09006651  0.70338411    -0.11900
C1564       C  0.59360920  0.06975514  0.72408178    -0.10300
H1565       H  0.52934117  0.03921895  0.72531687     0.07700
H1566       H  0.52068285  0.07417143  0.68904751     0.11400
H1567       H  0.60554593  0.10361796  0.69705485     0.11100
H1568       H  0.61443343  0.06829568  0.73286001     0.07600
C1569       C  0.63195234  0.24483932  0.55180343    -0.11500
C1570       C  0.62075599  0.25382066  0.52611426     0.05700
C1571       C  0.59415651  0.24427567  0.51819006    -0.10200
C1572       C  0.57924411  0.22585364  0.53537456    -0.11900
C1573       C  0.59043749  0.21682338  0.56105920    -0.01700
C1574       C  0.61688665  0.22669384  0.56917115    -0.10800
C1575       C  0.63693402  0.27281039  0.50752003     0.05700
H1576       H  0.58510479  0.25067733  0.49843412     0.07600
H1577       H  0.55888104  0.21872292  0.52854696     0.11100
H1578       H  0.62607503  0.22018180  0.58883346     0.11400
H1579       H  0.65229973  0.25207591  0.55857271     0.07700
C1580       C  0.62405275  0.29601045  0.49473699    -0.11500
C1581       C  0.63958246  0.31421207  0.47776912    -0.10800
C1582       C  0.66821373  0.30931998  0.47289712    -0.01700
C1583       C  0.68088538  0.28573795  0.48519950    -0.11900
C1584       C  0.66549618  0.26784221  0.50246648    -0.10300
H1585       H  0.60206931  0.30038230  0.49833367     0.07700
H1586       H  0.62920827  0.33208876  0.46847239     0.11400
H1587       H  0.70290755  0.28132352  0.48185995     0.11100
H1588       H  0.67589231  0.24994769  0.51172292     0.07600
C1589       C  0.66455540  0.01750619  0.52223683    -0.11500
C1590       C  0.63931847  0.03239426  0.52061977     0.05700
C1591       C  0.61737787  0.02155426  0.50427506    -0.10200
C1592       C  0.61994413  0.99516939  0.49166524    -0.11900
C1593       C  0.64452753  0.97938761  0.49522012    -0.01700
C1594       C  0.66716340  0.99142042  0.50963441    -0.10800
C1595       C  0.63458534  0.05671016  0.53927933     0.05700
H1596       H  0.59761376  0.03261373  0.50283014     0.07600
H1597       H  0.60224589  0.98651906  0.48056972     0.11100
H1598       H  0.68665179  0.98008469  0.51231105     0.11400
H1599       H  0.68186905  0.02551019  0.53439552     0.07700
C1600       C  0.64057796  0.05413365  0.56796865    -0.11500
C1601       C  0.63144578  0.07441343  0.58689719    -0.10800
C1602       C  0.61689008  0.09805079  0.57744610    -0.01700
C1603       C  0.61290032  0.10184242  0.54856693    -0.11900
C1604       C  0.62145323  0.08117556  0.52960206    -0.10300
H1605       H  0.65035342  0.03534263  0.57605827     0.07700
H1606       H  0.63390827  0.07065737  0.60911358     0.11400
H1607       H  0.60086106  0.11950106  0.54094121     0.11100
H1608       H  0.61661019  0.08364145  0.50761424     0.07600
C1609       C  0.50411801  0.08250688  0.48883709    -0.11500
C1610       C  0.48659734  0.10111825  0.47399077     0.05700
C1611       C  0.48402605  0.12866086  0.48353638    -0.10200
C1612       C  0.49707276  0.13690735  0.50827355    -0.11900
C1613       C  0.51316057  0.11787600  0.52410554    -0.01700
C1614       C  0.51733858  0.09082404  0.51363338    -0.10800
C1615       C  0.46804935  0.09098312  0.45118226     0.05700
H1616       H  0.47049803  0.14339246  0.47284369     0.07600
H1617       H  0.49350781  0.15800671  0.51564558     0.11100
H1618       H  0.52959082  0.07571553  0.52529106     0.11400
H1619       H  0.50671035  0.06115913  0.48182225     0.07700
C1620       C  0.46235429  0.10708884  0.42705978    -0.11500
C1621       C  0.44254690  0.09808311  0.40724028    -0.10800
C1622       C  0.42778538  0.07309478  0.41157176    -0.01700
C1623       C  0.43398502  0.05704361  0.43554973    -0.11900
C1624       C  0.45375856  0.06577837  0.45491508    -0.10300
H1625       H  0.47314127  0.12666313  0.42361967     0.07700
H1626       H  0.43861496  0.11068513  0.38883262     0.11400
H1627       H  0.42346077  0.03743666  0.43958141     0.11100
H1628       H  0.45715208  0.05312624  0.47341239     0.07600
C1629       C  0.22856173  0.06537073  0.47102568    -0.11500
C1630       C  0.25308757  0.04944782  0.47463695     0.05700
C1631       C  0.26049325  0.04129014  0.50200915    -0.10200
C1632       C  0.24508764  0.05089442  0.52524764    -0.11900
C1633       C  0.22187539  0.06865440  0.52157820    -0.01700
C1634       C  0.21323398  0.07487985  0.49416838    -0.10800
C1635       C  0.27219330  0.04391779  0.45033086     0.05700
H1636       H  0.27940847  0.02928681  0.50559181     0.07600
H1637       H  0.25295160  0.04670956  0.54609299     0.11100
H1638       H  0.19594449  0.08917888  0.49071935     0.11400
H1639       H  0.22204476  0.07175429  0.45028285     0.07700
C1640       C  0.28545090  0.01788170  0.44679394    -0.11500
C1641       C  0.30471344  0.01357604  0.42491753    -0.10800
C1642       C  0.31157356  0.03533375  0.40622791    -0.01700
C1643       C  0.29785463  0.06118804  0.40946358    -0.11900
C1644       C  0.27837672  0.06536850  0.43108953    -0.10300
H1645       H  0.28110491  0.00089592  0.46113360     0.07700
H1646       H  0.31498268  0.99345132  0.42326469     0.11400
H1647       H  0.30273710  0.07851623  0.39571683     0.11100
H1648       H  0.26890189  0.08582007  0.43338430     0.07600
C1649       C  0.22727669  0.02683205  0.70110007    -0.11500
C1650       C  0.20207196  0.01195496  0.70347077     0.05700
C1651       C  0.18174926  0.01554487  0.68242529    -0.10200
C1652       C  0.18578936  0.03478571  0.66054781    -0.11900
C1653       C  0.21049767  0.05058784  0.65883309    -0.01700
C1654       C  0.23155807  0.04565015  0.67893399    -0.10800
C1655       C  0.19568135  0.99479900  0.72891212     0.05700
H1656       H  0.16201796  0.00454462  0.68370923     0.07600
H1657       H  0.16915479  0.03797082  0.64551186     0.11100
H1658       H  0.25089890  0.05737859  0.67836496     0.11400
H1659       H  0.24341965  0.02440850  0.71681241     0.07700
C1660       C  0.18260070  0.96864937  0.72648657    -0.11500
C1661       C  0.17173987  0.95504558  0.75014412    -0.10800
C1662       C  0.17379573  0.96716305  0.77680103    -0.01700
C1663       C  0.18851847  0.99234397  0.77957452    -0.11900
C1664       C  0.19956722  0.00591888  0.75590186    -0.10300
H1665       H  0.17944989  0.95942977  0.70606769     0.07700
H1666       H  0.15986172  0.93602885  0.74735549     0.11400
H1667       H  0.18951246  0.00263991  0.79971433     0.11100
H1668       H  0.20924716  0.02616114  0.75848502     0.07600
C1669       C  0.10636705  0.22596014  0.46381071    -0.11500
C1670       C  0.12987156  0.23566584  0.47851130     0.05700
C1671       C  0.13910521  0.26314788  0.47352732    -0.10200
C1672       C  0.12493179  0.28054618  0.45469945    -0.11900
C1673       C  0.10099560  0.27099699  0.44069467    -0.01700
C1674       C  0.09200215  0.24346568  0.44529292    -0.10800
C1675       C  0.14462932  0.21719591  0.49890188     0.05700
H1676       H  0.15686977  0.27152846  0.48470301     0.07600
H1677       H  0.13217386  0.30177402  0.45180697     0.11100
H1678       H  0.07371159  0.23546651  0.43466582     0.11400
H1679       H  0.09903991  0.20476239  0.46653155     0.07700
C1680       C  0.12972080  0.19776556  0.51532814    -0.11500
C1681       C  0.14377065  0.17982924  0.53378875    -0.10800
C1682       C  0.17295657  0.18129095  0.53659080    -0.01700
C1683       C  0.18778672  0.20107199  0.52066774    -0.11900
C1684       C  0.17385402  0.21862620  0.50192105    -0.10300
H1685       H  0.10714377  0.19644995  0.51402461     0.07700
H1686       H  0.13182227  0.16488235  0.54590032     0.11400
H1687       H  0.21037291  0.20247891  0.52209516     0.11100
H1688       H  0.18613945  0.23287691  0.48933047     0.07600
C1689       C  0.17802404  0.19790209  0.70283938    -0.11500
C1690       C  0.15036490  0.20762628  0.70118363     0.05700
C1691       C  0.13325501  0.19773637  0.67929948    -0.10200
C1692       C  0.14369698  0.17822557  0.65979683    -0.11900
C1693       C  0.17116782  0.16787615  0.66233040    -0.01700
C1694       C  0.18820131  0.17837355  0.68384383    -0.10800
C1695       C  0.13937477  0.22569668  0.72413165     0.05700
H1696       H  0.11180928  0.20489866  0.67745304     0.07600
H1697       H  0.13019639  0.17081506  0.64324209     0.11100
H1698       H  0.20964603  0.17134520  0.68621787     0.11400
H1699       H  0.19165712  0.20457127  0.71960467     0.07700
C1700       C  0.11368957  0.21944691  0.73694292    -0.11500
C1701       C  0.10636806  0.23175122  0.76247348    -0.10800
C1702       C  0.12452732  0.25065209  0.77584286    -0.01700
C1703       C  0.14908424  0.25872240  0.76185491    -0.11900
C1704       C  0.15639726  0.24640778  0.73625441    -0.10300
H1705       H  0.10014706  0.20357147  0.72829363     0.07700
H1706       H  0.08705771  0.22529278  0.77244594     0.11400
H1707       H  0.16332491  0.27347956  0.77132334     0.11100
H1708       H  0.17611001  0.25207473  0.72659862     0.07600
C1709       C  0.35877492  0.10679646  0.57091694    -0.11500
C1710       C  0.37050776  0.10011654  0.59698249     0.05700
C1711       C  0.35401776  0.08762907  0.61772873    -0.10200
C1712       C  0.32529574  0.08569919  0.61399098    -0.11900
C1713       C  0.31306415  0.09626093  0.58951951    -0.01700
C1714       C  0.32998909  0.10453806  0.56704930    -0.10800
C1715       C  0.39856759  0.10979814  0.60416158     0.05700
H1716       H  0.36283582  0.08215550  0.63787529     0.07600
H1717       H  0.31237039  0.07909211  0.63143689     0.11100
H1718       H  0.32078517  0.11271305  0.54801084     0.11400
H1719       H  0.37150176  0.11592193  0.55450918     0.07700
C1720       C  0.41753984  0.09160307  0.61702723    -0.11500
C1721       C  0.44420745  0.10086638  0.62368882    -0.10800
C1722       C  0.45217623  0.12844556  0.61760625    -0.01700
C1723       C  0.43254284  0.14722233  0.60655181    -0.11900
C1724       C  0.40584399  0.13786712  0.59970906    -0.10300
H1725       H  0.41203703  0.07002285  0.62098445     0.07700
H1726       H  0.45919622  0.08601438  0.63205638     0.11400
H1727       H  0.43843076  0.16842819  0.60131734     0.11100
H1728       H  0.39100646  0.15238300  0.59051548     0.07600
C1729       C  0.33508093  0.29284242  0.62141179    -0.11500
C1730       C  0.30578053  0.28959853  0.62070996     0.05700
C1731       C  0.28872240  0.31262212  0.62730386    -0.10200
C1732       C  0.30054505  0.33710983  0.63762733    -0.11900
C1733       C  0.32963092  0.33909983  0.64141696    -0.01700
C1734       C  0.34693721  0.31751291  0.63161884    -0.10800
C1735       C  0.29313556  0.26160740  0.61642108     0.05700
H1736       H  0.26612852  0.31104368  0.62626065     0.07600
H1737       H  0.28678687  0.35349001  0.64522450     0.11100
H1738       H  0.36936233  0.31835580  0.63487244     0.11400
H1739       H  0.34881264  0.27548566  0.61648929     0.07700
C1740       C  0.30436573  0.24294034  0.59673888    -0.11500
C1741       C  0.29341842  0.21605192  0.59406441    -0.10800
C1742       C  0.27116533  0.20712533  0.61119135    -0.01700
C1743       C  0.25986530  0.22574386  0.63084768    -0.11900
C1744       C  0.27067812  0.25272096  0.63337824    -0.10300
H1745       H  0.32156841  0.24915541  0.58334533     0.07700
H1746       H  0.30256105  0.20214216  0.57868475     0.11400
H1747       H  0.24262532  0.21949065  0.64419903     0.11100
H1748       H  0.26188738  0.26640177  0.64915128     0.07600
C1749       C  0.08278934  0.45807563  0.24074752    -0.11500
C1750       C  0.06417296  0.46409423  0.26279169     0.05700
C1751       C  0.05302101  0.49144837  0.26439409    -0.10200
C1752       C  0.06256623  0.51274574  0.24644548    -0.11900
C1753       C  0.08334550  0.50710182  0.22643425    -0.01700
C1754       C  0.09221558  0.47927508  0.22288554    -0.10800
C1755       C  0.05944751  0.44306279  0.28575320     0.05700
H1756       H  0.03809550  0.49684095  0.28059309     0.07600
H1757       H  0.05573841  0.53402957  0.25004826     0.11100
H1758       H  0.10856357  0.47438120  0.20789321     0.11400
H1759       H  0.09206936  0.43753553  0.23869040     0.07700
C1760       C  0.05979067  0.41402608  0.28054584    -0.11500
C1761       C  0.05880082  0.39458866  0.30267680    -0.10800
C1762       C  0.05718704  0.40364609  0.33060568    -0.01700
C1763       C  0.05592773  0.43257890  0.33570113    -0.11900
C1764       C  0.05719510  0.45191709  0.31372598    -0.10300
H1765       H  0.06111847  0.40624256  0.25934484     0.07700
H1766       H  0.05947353  0.37249535  0.29793284     0.11400
H1767       H  0.05473439  0.44044046  0.35689519     0.11100
H1768       H  0.05752509  0.47390313  0.31889857     0.07600
C1769       C  0.03058955  0.67169672  0.18072639    -0.11500
C1770       C  0.03172610  0.69516459  0.19843610     0.05700
C1771       C  0.04930549  0.69393675  0.22192889    -0.10200
C1772       C  0.06629807  0.67058304  0.22689779    -0.11900
C1773       C  0.06661141  0.64780673  0.20829375    -0.01700
C1774       C  0.04803292  0.64836959  0.18545692    -0.10800
C1775       C  0.01697017  0.72184426  0.19117212     0.05700
H1776       H  0.05050673  0.71148572  0.23613032     0.07600
H1777       H  0.08033191  0.67108042  0.24464624     0.11100
H1778       H  0.04774449  0.63126950  0.17067082     0.11400
H1779       H  0.01737044  0.67201860  0.16235743     0.07700
C1780       C  0.98907727  0.72227057  0.18163648    -0.11500
C1781       C  0.97648658  0.74741278  0.17273774    -0.10800
C1782       C  0.99172739  0.77251310  0.17272788    -0.01700
C1783       C  0.01920554  0.77215514  0.18324513    -0.11900
C1784       C  0.03156459  0.74727111  0.19248584    -0.10300
H1785       H  0.97725150  0.70305589  0.18044814     0.07700
H1786       H  0.95556793  0.74686532  0.16407407     0.11400
H1787       H  0.03171109  0.79100010  0.18298842     0.11100
H1788       H  0.05315876  0.74771455  0.19933190     0.07600
C1789       C  0.20579134  0.50302368  0.12193113    -0.11500
C1790       C  0.23029379  0.49199461  0.13400136     0.05700
C1791       C  0.23620556  0.49794857  0.16207967    -0.10200
C1792       C  0.21785680  0.51415803  0.17795891    -0.11900
C1793       C  0.19295479  0.52463525  0.16624078    -0.01700
C1794       C  0.18716711  0.51908274  0.13797789    -0.10800
C1795       C  0.24948502  0.47373289  0.11782715     0.05700
H1796       H  0.25512144  0.49004259  0.17178486     0.07600
H1797       H  0.22302998  0.51809265  0.19963932     0.11100
H1798       H  0.16820800  0.52697751  0.12835510     0.11400
H1799       H  0.20072394  0.49863437  0.10031434     0.07700
C1800       C  0.25988557  0.44901438  0.12988235    -0.11500
C1801       C  0.27831217  0.43181901  0.11507283    -0.10800
C1802       C  0.28686662  0.43899995  0.08787231    -0.01700
C1803       C  0.27654946  0.46382642  0.07582141    -0.11900
C1804       C  0.25791931  0.48096014  0.09061549    -0.10300
H1805       H  0.25346433  0.44279593  0.15072526     0.07700
H1806       H  0.28569617  0.41277858  0.12489032     0.11400
H1807       H  0.28265820  0.46989930  0.05484414     0.11100
H1808       H  0.25037811  0.50002256  0.08095260     0.07600
C1809       C  0.21667105  0.66608935  0.14411223    -0.11500
C1810       C  0.20349828  0.69065425  0.13465598     0.05700
C1811       C  0.17404227  0.69191996  0.13448576    -0.10200
C1812       C  0.15819892  0.66977221  0.14503651    -0.11900
C1813       C  0.17147079  0.64576264  0.15539892    -0.01700
C1814       C  0.20074988  0.64379270  0.15434672    -0.10800
C1815       C  0.22018937  0.71556877  0.12661633     0.05700
H1816       H  0.16327444  0.71070159  0.12774519     0.07600
H1817       H  0.13566173  0.67201581  0.14661848     0.11100
H1818       H  0.21134857  0.62577687  0.16316966     0.11400
H1819       H  0.23928635  0.66446802  0.14436124     0.07700
C1820       C  0.24319732  0.72415185  0.14281538    -0.11500
C1821       C  0.25721960  0.74910935  0.13664904    -0.10800
C1822       C  0.24856071  0.76587214  0.11409626    -0.01700
C1823       C  0.22620515  0.75667494  0.09736045    -0.11900
C1824       C  0.21217100  0.73191730  0.10359311    -0.10300
H1825       H  0.24967834  0.71211926  0.16088660     0.07700
H1826       H  0.27431570  0.75562994  0.14994868     0.11400
H1827       H  0.21899478  0.76899127  0.07975744     0.11100
H1828       H  0.19476940  0.72570239  0.09054018     0.07600
C1829       C  0.32992125  0.61404637  0.28511698    -0.11500
C1830       C  0.30669439  0.60676714  0.30154917     0.05700
C1831       C  0.30960826  0.60634330  0.33089218    -0.10200
C1832       C  0.33396389  0.61672358  0.34346330    -0.11900
C1833       C  0.35554724  0.62758645  0.32679028    -0.01700
C1834       C  0.35417160  0.62418443  0.29762688    -0.10800
C1835       C  0.27884640  0.60294962  0.28824714     0.05700
H1836       H  0.29213045  0.60060072  0.34412478     0.07600
H1837       H  0.33438788  0.61941818  0.36596239     0.11100
H1838       H  0.37060589  0.63241161  0.28433391     0.11400
H1839       H  0.32861447  0.61379567  0.26249370     0.07700
C1840       C  0.26986088  0.62118226  0.26682337    -0.11500
C1841       C  0.24305730  0.61876048  0.25522969    -0.10800
C1842       C  0.22473294  0.59795834  0.26472439    -0.01700
C1843       C  0.23383457  0.57965794  0.28602340    -0.11900
C1844       C  0.26048753  0.58219987  0.29770573    -0.10300
H1845       H  0.28335457  0.63777649  0.25945101     0.07700
H1846       H  0.23668753  0.63314158  0.23890273     0.11400
H1847       H  0.22023574  0.56337400  0.29389852     0.11100
H1848       H  0.26677991  0.56785045  0.31409010     0.07600
C1849       C  0.25111189  0.68990784  0.47767942    -0.11500
C1850       C  0.27903493  0.69007190  0.48729204     0.05700
C1851       C  0.28384128  0.68383326  0.51570443    -0.10200
C1852       C  0.26184423  0.67509027  0.53313606    -0.11900
C1853       C  0.23444371  0.67290131  0.52279280    -0.01700
C1854       C  0.22914010  0.68148455  0.49523678    -0.10800
C1855       C  0.30291684  0.69400016  0.46713258     0.05700
H1856       H  0.30484261  0.68424014  0.52414995     0.07600
H1857       H  0.26664523  0.66774002  0.55403144     0.11100
H1858       H  0.20843987  0.67889161  0.48638215     0.11400
H1859       H  0.24635394  0.69407653  0.45594692     0.07700
C1860       C  0.32825239  0.67895193  0.47017965    -0.11500
C1861       C  0.34924675  0.68014846  0.44953215    -0.10800
C1862       C  0.34519971  0.69598051  0.42511158    -0.01700
C1863       C  0.32048952  0.71180944  0.42253902    -0.11900
C1864       C  0.29981545  0.71107696  0.44333298    -0.10300
H1865       H  0.33142440  0.66519755  0.48788497     0.07700
H1866       H  0.36798828  0.66756911  0.45199216     0.11400
H1867       H  0.31694127  0.72449901  0.40409478     0.11100
H1868       H  0.28109086  0.72354301  0.44040666     0.07600
C1869       C  0.03632368  0.76691594  0.57010779    -0.11500
C1870       C  0.03314165  0.74089240  0.55691399     0.05700
C1871       C  0.00585358  0.73233453  0.54978807    -0.10200
C1872       C  0.98231737  0.74781466  0.55860747    -0.11900
C1873       C  0.98558150  0.77236242  0.57433258    -0.01700
C1874       C  0.01285288  0.78243286  0.57866873    -0.10800
C1875       C  0.05761259  0.72131931  0.55400401     0.05700
H1876       H  0.00258399  0.71238536  0.53970669     0.07600
H1877       H  0.96165393  0.73900393  0.55578840     0.11100
H1878       H  0.01606039  0.80086305  0.59136124     0.11400
H1879       H  0.05699276  0.77437141  0.57552467     0.07700
C1880       C  0.06157026  0.70516619  0.52978640    -0.11500
C1881       C  0.08316292  0.68515994  0.52834013    -0.10800
C1882       C  0.10129718  0.68046619  0.55118306    -0.01700
C1883       C  0.09768732  0.69707171  0.57516693    -0.11900
C1884       C  0.07623297  0.71723133  0.57651429    -0.10300
H1885       H  0.04774374  0.70779855  0.51204192     0.07700
H1886       H  0.08522145  0.67286169  0.50945888     0.11400
H1887       H  0.11094979  0.69395600  0.59325370     0.11100
H1888       H  0.07354420  0.72893892  0.59569085     0.07600
C1889       C  0.27588316  0.53250365  0.59161357    -0.11500
C1890       C  0.27556172  0.53178795  0.62099028     0.05700
C1891       C  0.25803757  0.55079105  0.63534435    -0.10200
C1892       C  0.24049889  0.56919063  0.62054835    -0.11900
C1893       C  0.23988895  0.56853413  0.59121593    -0.01700
C1894       C  0.25810163  0.55039203  0.57697147    -0.10800
C1895       C  0.29269288  0.51053992  0.63622726     0.05700
H1896       H  0.25704884  0.55074461  0.65796321     0.07600
H1897       H  0.22650698  0.58290849  0.63198262     0.11100
H1898       H  0.25832734  0.54976851  0.55432246     0.11400
H1899       H  0.28967823  0.51895693  0.57978611     0.07700
C1900       C  0.29693279  0.48373535  0.62476247    -0.11500
C1901       C  0.31272621  0.46358380  0.63895270    -0.10800
C1902       C  0.32425774  0.46951555  0.66521148    -0.01700
C1903       C  0.32018013  0.49625532  0.67670960    -0.11900
C1904       C  0.30472239  0.51657625  0.66232731    -0.10300
H1905       H  0.28749361  0.47799510  0.60504686     0.07700
H1906       H  0.31519487  0.44307039  0.62973819     0.11400
H1907       H  0.32893549  0.50148205  0.69690497     0.11100
H1908       H  0.30233320  0.53704083  0.67162734     0.07600
C1909       C  0.03571413  0.51983754  0.66036327    -0.11500
C1910       C  0.05085737  0.51711844  0.63537635     0.05700
C1911       C  0.04008328  0.49975174  0.61416777    -0.10200
C1912       C  0.01369867  0.48711636  0.61722270    -0.11900
C1913       C  0.99772360  0.49177118  0.64148538    -0.01700
C1914       C  0.00955656  0.50742357  0.66334657    -0.10800
C1915       C  0.07583879  0.53500264  0.63041837     0.05700
H1916       H  0.05122017  0.49731465  0.59456888     0.07600
H1917       H  0.00518472  0.47511393  0.60007463     0.11100
H1918       H  0.99807062  0.51103705  0.68256967     0.11400
H1919       H  0.04364922  0.53249257  0.67731999     0.07700
C1920       C  0.07527275  0.56325667  0.63865807    -0.11500
C1921       C  0.09616942  0.58166899  0.62992063    -0.10800
C1922       C  0.11821888  0.57214840  0.61314279    -0.01700
C1923       C  0.12018236  0.54356677  0.60682597    -0.11900
C1924       C  0.09909809  0.52511917  0.61529547    -0.10300
H1925       H  0.05749594  0.57171025  0.64993191     0.07700
H1926       H  0.09376325  0.60377911  0.63412240     0.11400
H1927       H  0.13663047  0.53600151  0.59311173     0.11100
H1928       H  0.10026765  0.50348288  0.60882962     0.07600
C1929       C  0.16335458  0.60426150  0.40225652    -0.11500
C1930       C  0.13487821  0.60586329  0.39510320     0.05700
C1931       C  0.11533706  0.61581299  0.41449786    -0.10200
C1932       C  0.12373292  0.62129298  0.44172186    -0.11900
C1933       C  0.15173311  0.61699978  0.44964395    -0.01700
C1934       C  0.17183275  0.61003439  0.42947964    -0.10800
C1935       C  0.12558850  0.59620827  0.36768980     0.05700
H1936       H  0.09338106  0.61753763  0.40909196     0.07600
H1937       H  0.10797924  0.62675221  0.45714559     0.11100
H1938       H  0.19346266  0.60649272  0.43530814     0.11400
H1939       H  0.17876110  0.59728134  0.38710867     0.07700
C1940       C  0.11037611  0.61416922  0.35027274    -0.11500
C1941       C  0.10674531  0.60729616  0.32228992    -0.10800
C1942       C  0.11815544  0.58238827  0.31173354    -0.01700
C1943       C  0.12996087  0.56277407  0.33001490    -0.11900
C1944       C  0.13393591  0.56981968  0.35795832    -0.10300
H1945       H  0.10354903  0.63446534  0.35764840     0.07700
H1946       H  0.09770664  0.62268808  0.30828099     0.11400
H1947       H  0.13912228  0.54361770  0.32211155     0.11100
H1948       H  0.14518587  0.55551447  0.37151104     0.07600
C1949       C  0.17085953  0.47775281  0.48529241    -0.11500
C1950       C  0.14552956  0.46363687  0.48973586     0.05700
C1951       C  0.12523851  0.47606804  0.50728066    -0.10200
C1952       C  0.12943494  0.50268735  0.51862370    -0.11900
C1953       C  0.15399144  0.51754198  0.51261547    -0.01700
C1954       C  0.17506503  0.50434154  0.49664589    -0.10800
C1955       C  0.13874978  0.43760178  0.47405711     0.05700
H1956       H  0.10534544  0.46592172  0.51096475     0.07600
H1957       H  0.11285961  0.51218465  0.53087676     0.11100
H1958       H  0.19447836  0.51502854  0.49198379     0.11400
H1959       H  0.18707297  0.46860308  0.47231071     0.07700
C1960       C  0.14454846  0.43533706  0.44516804    -0.11500
C1961       C  0.13194103  0.41434011  0.42900523    -0.10800
C1962       C  0.11345334  0.39535251  0.44156926    -0.01700
C1963       C  0.11035134  0.39576869  0.47085984    -0.11900
C1964       C  0.12286110  0.41657272  0.48689485    -0.10300
H1965       H  0.15680445  0.45116774  0.43462885     0.07700
H1966       H  0.13459504  0.41458439  0.40649724     0.11400
H1967       H  0.09644713  0.38114890  0.48117197     0.11100
H1968       H  0.11860992  0.41722813  0.50915701     0.07600
loop_ 
_geom_bond_atom_site_label_1 
_geom_bond_atom_site_label_2 
_geom_bond_distance 
_geom_bond_site_symmetry_2 
_ccdc_geom_bond_type 
O1          Cr19   1.977       .  S
O1            C9   1.261       .  A
O2          Cr19   1.982       .  S
O2            C3   1.257       .  A
C3            O4   1.268       .  A
C3         C1853   1.474       .  S
O4          Cr20   2.019       .  S
O5          Cr20   2.046       .  S
O5            C6   1.276       .  A
C6            O7   1.261       .  A
C6         C1882   1.501       .  S
O7          Cr21   1.978       .  S
O8          Cr21   1.970       .  S
O8            C9   1.261       .  A
C9         C1933   1.455       .  S
O10         Cr19   1.994       .  S
O10          C18   1.262       .  A
O11         Cr19   1.955       .  S
O11          C12   1.259       .  A
C12          O13   1.273       .  A
C12        C1893   1.476       .  S
O13         Cr20   2.032       .  S
O14         Cr20   2.002       .  S
O14          C15   1.262       .  A
C15          O16   1.256       .  A
C15        C1922   1.462       .  S
O16         Cr21   1.976       .  S
O17         Cr21   2.001       .  S
O17          C18   1.265       .  A
C18        C1953   1.487       .  S
Cr19         O22   1.768       .  S
Cr20         O22   1.773       .  S
Cr21         O22   1.767       .  S
O23         Cr41   1.975       .  S
O23          C31   1.264       .  A
O24         Cr41   1.981       .  S
O24          C25   1.254       .  A
C25          O26   1.268       .  A
C25        C1753   1.483       .  S
O26         Cr42   2.032       .  S
O27         Cr42   2.029       .  S
O27          C28   1.270       .  A
C28          O29   1.260       .  A
C28        C1773   1.495       .  S
O29         Cr43   1.975       .  S
O30         Cr43   1.980       .  S
O30          C31   1.267       .  A
C31        C1942   1.453       .  S
O32         Cr41   1.986       .  S
O32          C40   1.256       .  A
O33         Cr41   1.961       .  S
O33          C34   1.263       .  A
C34          O35   1.276       .  A
C34        C1793   1.480       .  S
O35         Cr42   2.033       .  S
O36         Cr42   1.999       .  S
O36          C37   1.265       .  A
C37          O38   1.260       .  A
C37        C1813   1.464       .  S
O38         Cr43   1.979       .  S
O39         Cr43   2.004       .  S
O39          C40   1.262       .  A
C40        C1842   1.484       .  S
Cr41         O44   1.772       .  S
Cr42         O44   1.772       .  S
Cr43         O44   1.765       .  S
O45         Cr63   1.967       .  S
O45          C53   1.259       .  A
O46         Cr63   1.982       .  S
O46          C47   1.255       .  A
C47          O48   1.270       .  A
C47        C1633   1.480       .  S
O48         Cr64   2.033       .  S
O49         Cr64   2.040       .  S
O49          C50   1.273       .  A
C50          O51   1.259       .  A
C50        C1653   1.497       .  S
O51         Cr65   1.974       .  S
O52         Cr65   1.982       .  S
O52          C53   1.266       .  A
C53        C1713   1.452       .  S
O54         Cr63   1.996       .  S
O54          C62   1.260       .  A
O55         Cr63   1.959       .  S
O55          C56   1.260       .  A
C56          O57   1.275       .  A
C56        C1682   1.479       .  S
O57         Cr64   2.035       .  S
O58         Cr64   2.015       .  S
O58          C59   1.268       .  A
C59          O60   1.261       .  A
C59        C1693   1.487       .  S
O60         Cr65   1.979       .  S
O61         Cr65   1.992       .  S
O61          C62   1.260       .  A
C62        C1742   1.478       .  S
Cr63         O66   1.769       .  S
Cr64         O66   1.765       .  S
Cr65         O66   1.760       .  S
O67         Cr85   1.979       .  S
O67          C75   1.263       .  A
O68         Cr85   1.980       .  S
O68          C69   1.261       .  A
C69          O70   1.273       .  A
C69        C1533   1.488       .  S
O70         Cr86   2.029       .  S
O71         Cr86   2.040       .  S
O71          C72   1.273       .  A
C72          O73   1.261       .  A
C72        C1562   1.500       .  S
O73         Cr87   1.981       .  S
O74         Cr87   1.967       .  S
O74          C75   1.260       .  A
C75        C1722   1.458       .  S
O76         Cr85   1.982       .  S
O76          C84   1.260       .  A
O77         Cr85   1.974       .  S
O77          C78   1.260       .  A
C78          O79   1.269       .  A
C78        C1573   1.484       .  S
O79         Cr86   2.019       .  S
O80         Cr86   2.008       .  S
O80          C81   1.263       .  A
C81          O82   1.257       .  A
C81        C1602   1.469       .  S
O82         Cr87   1.983       .  S
O83         Cr87   2.005       .  S
O83          C84   1.266       .  A
C84        C1613   1.485       .  S
Cr85         O88   1.768       .  S
Cr86         O88   1.773       .  S
Cr87         O88   1.773       .  S
O89        Cr107   1.966       .  S
O89          C97   1.261       .  A
O90        Cr107   1.990       .  S
O90          C91   1.261       .  A
C91          O92   1.270       .  A
C91        C1413   1.479       .  S
O92        Cr108   2.021       .  S
O93        Cr108   2.032       .  S
O93          C94   1.271       .  A
C94          O95   1.261       .  A
C94        C1433   1.499       .  S
O95        Cr109   1.983       .  S
O96        Cr109   2.001       .  S
O96          C97   1.268       .  A
C97        C1493   1.471       .  S
O98        Cr107   1.995       .  S
O98         C106   1.260       .  A
O99        Cr107   1.975       .  S
O99         C100   1.261       .  A
C100        O101   1.271       .  A
C100       C1453   1.482       .  S
O101       Cr108   2.029       .  S
O102       Cr108   1.995       .  S
O102        C103   1.264       .  A
C103        O104   1.262       .  A
C103       C1482   1.463       .  S
O104       Cr109   1.990       .  S
O105       Cr109   1.998       .  S
O105        C106   1.261       .  A
C106       C1513   1.488       .  S
Cr107       O110   1.765       .  S
Cr108       O110   1.770       .  S
Cr109       O110   1.771       .  S
O111       Cr129   1.991       .  S
O111        C119   1.265       .  A
O112       Cr129   1.965       .  S
O112        C113   1.255       .  A
C113        O114   1.274       .  A
C113       C1313   1.485       .  S
O114       Cr130   2.051       .  S
O115       Cr130   1.998       .  S
O115        C116   1.269       .  A
C116        O117   1.270       .  A
C116       C1333   1.493       .  S
O117       Cr131   2.016       .  S
O118       Cr131   1.970       .  S
O118        C119   1.260       .  A
C119       C1502   1.469       .  S
O120       Cr129   1.980       .  S
O120        C128   1.260       .  A
O121       Cr129   2.011       .  S
O121        C122   1.266       .  A
C122        O123   1.260       .  A
C122       C1353   1.476       .  S
O123       Cr130   1.974       .  S
O124       Cr130   2.033       .  S
O124        C125   1.269       .  A
C125        O126   1.254       .  A
C125       C1373   1.467       .  S
O126       Cr131   1.955       .  S
O127       Cr131   2.005       .  S
O127        C128   1.265       .  A
C128       C1402   1.473       .  S
Cr129       O132   1.768       .  S
Cr130       O132   1.777       .  S
Cr131       O132   1.762       .  S
O133       Cr151   1.976       .  S
O133        C141   1.263       .  A
O134       Cr151   1.975       .  S
O134        C135   1.252       .  A
C135        O136   1.270       .  A
C135       C1213   1.482       .  S
O136       Cr152   2.037       .  S
O137       Cr152   2.033       .  S
O137        C138   1.272       .  A
C138        O139   1.262       .  A
C138       C1233   1.497       .  S
O139       Cr153   1.978       .  S
O140       Cr153   1.978       .  S
O140        C141   1.264       .  A
C141       C1293   1.463       .  S
O142       Cr151   1.980       .  S
O142        C150   1.257       .  A
O143       Cr151   1.958       .  S
O143        C144   1.261       .  A
C144        O145   1.275       .  A
C144       C1253   1.477       .  S
O145       Cr152   2.034       .  S
O146       Cr152   2.010       .  S
O146        C147   1.266       .  A
C147        O148   1.256       .  A
C147       C1273   1.466       .  S
O148       Cr153   1.970       .  S
O149       Cr153   2.008       .  S
O149        C150   1.263       .  A
C150       C1593   1.483       .  S
Cr151       O154   1.769       .  S
Cr152       O154   1.772       .  S
Cr153       O154   1.770       .  S
O155       Cr173   1.974       .  S
O155        C163   1.263       .  A
O156       Cr173   1.986       .  S
O156        C157   1.258       .  A
C157        O158   1.271       .  A
C157       C1553   1.486       .  S
O158       Cr174   2.029       .  S
O159       Cr174   2.048       .  S
O159        C160   1.276       .  A
C160        O161   1.262       .  A
C160       C1142   1.505       .  S
O161       Cr175   1.979       .  S
O162       Cr175   1.974       .  S
O162        C163   1.263       .  A
C163       C1302   1.462       .  S
O164       Cr173   1.983       .  S
O164        C172   1.259       .  A
O165       Cr173   1.960       .  S
O165        C166   1.259       .  A
C166        O167   1.273       .  A
C166       C1153   1.480       .  S
O167       Cr174   2.028       .  S
O168       Cr174   2.000       .  S
O168        C169   1.262       .  A
C169        O170   1.257       .  A
C169       C1173   1.464       .  S
O170       Cr175   1.978       .  S
O171       Cr175   2.007       .  S
O171        C172   1.265       .  A
C172       C1193   1.481       .  S
Cr173       O176   1.766       .  S
Cr174       O176   1.769       .  S
Cr175       O176   1.771       .  S
O177       Cr195   1.974       .  S
O177        C185   1.262       .  A
O178       Cr195   1.982       .  S
O178        C179   1.256       .  A
C179        O180   1.265       .  A
C179       C1033   1.471       .  S
O180       Cr196   2.013       .  S
O181       Cr196   2.039       .  S
O181        C182   1.272       .  A
C182        O183   1.258       .  A
C182       C1062   1.498       .  S
O183       Cr197   1.969       .  S
O184       Cr197   1.991       .  S
O184        C185   1.266       .  A
C185       C1113   1.467       .  S
O186       Cr195   1.995       .  S
O186        C194   1.261       .  A
O187       Cr195   1.969       .  S
O187        C188   1.264       .  A
C188        O189   1.274       .  A
C188       C1082   1.479       .  S
O189       Cr196   2.025       .  S
O190       Cr196   1.991       .  S
O190        C191   1.261       .  A
C191        O192   1.262       .  A
C191       C1093   1.467       .  S
O192       Cr197   1.992       .  S
O193       Cr197   1.993       .  S
O193        C194   1.261       .  A
C194       C1822   1.484       .  S
Cr195       O198   1.770       .  S
Cr196       O198   1.770       .  S
Cr197       O198   1.768       .  S
O199       Cr217   1.999   1_455  S
O199        C207   1.268       .  A
O200       Cr217   1.957   1_455  S
O200        C201   1.252   1_455  A
C201        O202   1.273       .  A
C201       C1782   1.487       .  S
O202       Cr218   2.054       .  S
O203       Cr218   2.004       .  S
O203        C204   1.269       .  A
C204        O205   1.269       .  A
C204        C953   1.492       .  S
O205       Cr219   2.009       .  S
O206       Cr219   1.956   1_455  S
O206        C207   1.257       .  A
C207       C1122   1.455       .  S
O208       Cr217   1.978       .  S
O208        C216   1.257       .  A
O209       Cr217   2.016       .  S
O209        C210   1.268       .  A
C210        O211   1.262       .  A
C210        C973   1.476       .  S
O211       Cr218   1.969       .  S
O212       Cr218   2.046       .  S
O212        C213   1.273       .  A
C213        O214   1.253       .  A
C213        C993   1.472       .  S
O214       Cr219   1.951       .  S
O215       Cr219   2.003       .  S
O215        C216   1.264       .  A
C216       C1013   1.477   1_655  S
Cr217       O220   1.761       .  S
Cr218       O220   1.773       .  S
Cr219       O220   1.756       .  S
O221       Cr239   1.975   1_565  S
O221        C229   1.260       .  A
O222       Cr239   1.980       .  S
O222        C223   1.255       .  A
C223        O224   1.273       .  A
C223       C1053   1.481       .  S
O224       Cr240   2.039       .  S
O225       Cr240   2.027       .  S
O225        C226   1.270       .  A
C226        O227   1.262       .  A
C226       C1642   1.496       .  S
O227       Cr241   1.984       .  S
O228       Cr241   1.985   1_565  S
O228        C229   1.265       .  A
C229        C933   1.466       .  S
O230       Cr239   1.996   1_565  S
O230        C238   1.261       .  A
O231       Cr239   1.968       .  S
O231        C232   1.262       .  A
C232        O233   1.271       .  A
C232       C1362   1.477       .  S
O233       Cr240   2.020       .  S
O234       Cr240   2.024       .  S
O234        C235   1.271       .  A
C235        O236   1.260       .  A
C235       C1622   1.489       .  S
O236       Cr241   1.974       .  S
O237       Cr241   1.993       .  S
O237        C238   1.261   1_545  A
C238       C1282   1.484       .  S
Cr239       O242   1.768       .  S
Cr240       O242   1.764       .  S
Cr241       O242   1.764       .  S
O243       Cr261   2.001       .  S
O243        C251   1.266       .  A
O244       Cr261   1.964       .  S
O244        C245   1.257       .  A
C245        O246   1.275       .  A
C245       C1242   1.486       .  S
O246       Cr262   2.051       .  S
O247       Cr262   1.998       .  S
O247        C248   1.267       .  A
C248        O249   1.268       .  A
C248       C1862   1.487       .  S
O249       Cr263   2.009       .  S
O250       Cr263   1.962       .  S
O250        C251   1.256       .  A
C251        C942   1.466       .  S
O252       Cr261   1.978       .  S
O252        C260   1.260       .  A
O253       Cr261   2.007       .  S
O253        C254   1.266       .  A
C254        O255   1.263       .  A
C254       C1462   1.484       .  S
O255       Cr262   1.985       .  S
O256       Cr262   2.046       .  S
O256        C257   1.272       .  A
C257        O258   1.251       .  A
C257       C1833   1.472       .  S
O258       Cr263   1.944       .  S
O259       Cr263   2.009       .  S
O259        C260   1.266       .  A
C260       C1102   1.476       .  S
Cr261       O264   1.763       .  S
Cr262       O264   1.777       .  S
Cr263       O264   1.757       .  S
O265       Cr283   1.978       .  S
O265        C273   1.264       .  A
O266       Cr283   1.982       .  S
O266        C267   1.256       .  A
C267        O268   1.271       .  A
C267       C1133   1.488       .  S
O268       Cr284   2.036       .  S
O269       Cr284   2.028       .  S
O269        C270   1.271       .  A
C270        O271   1.262       .  A
C270        C873   1.493       .  S
O271       Cr285   1.976       .  S
O272       Cr285   1.973       .  S
O272        C273   1.260       .  A
C273        C913   1.463       .  S
O274       Cr283   1.976       .  S
O274        C282   1.259       .  A
O275       Cr283   1.968       .  S
O275        C276   1.262       .  A
C276        O277   1.271       .  A
C276       C1073   1.483       .  S
O277       Cr284   2.023       .  S
O278       Cr284   2.013       .  S
O278        C279   1.266       .  A
C279        O280   1.256       .  A
C279        C902   1.466       .  S
O280       Cr285   1.971       .  S
O281       Cr285   2.007       .  S
O281        C282   1.265       .  A
C282       C1473   1.481       .  S
Cr283       O286   1.765       .  S
Cr284       O286   1.773       .  S
Cr285       O286   1.776       .  S
O287       Cr305   1.976       .  S
O287        C295   1.262       .  A
O288       Cr305   1.981       .  S
O288        C289   1.256       .  A
C289        O290   1.269       .  A
C289       C1442   1.483       .  S
O290       Cr306   2.030       .  S
O291       Cr306   2.034       .  S
O291        C292   1.273       .  A
C292        O293   1.261       .  A
C292        C833   1.493       .  S
O293       Cr307   1.974       .  S
O294       Cr307   1.981       .  S
O294        C295   1.263       .  A
C295        C922   1.465       .  S
O296       Cr305   1.986       .  S
O296        C304   1.260       .  A
O297       Cr305   1.955       .  S
O297        C298   1.260       .  A
C298        O299   1.273       .  A
C298        C982   1.475       .  S
O299       Cr306   2.031       .  S
O300       Cr306   2.010       .  S
O300        C301   1.265       .  A
C301        O302   1.257       .  A
C301        C862   1.469       .  S
O302       Cr307   1.977       .  S
O303       Cr307   1.996       .  S
O303        C304   1.262       .  A
C304       C1182   1.477       .  S
Cr305       O308   1.766       .  S
Cr306       O308   1.771       .  S
Cr307       O308   1.770       .  S
O309       Cr327   1.969   1_556  S
O309        C317   1.262       .  A
O310       Cr327   1.983       .  S
O310        C311   1.253       .  A
C311        O312   1.269       .  A
C311        C793   1.482       .  S
O312       Cr328   2.035       .  S
O313       Cr328   2.021       .  S
O313        C314   1.268       .  A
C314        O315   1.261       .  A
C314       C1322   1.497       .  S
O315       Cr329   1.983       .  S
O316       Cr329   1.997   1_556  S
O316        C317   1.269       .  A
C317        C822   1.468       .  S
O318       Cr327   1.990   1_556  S
O318        C326   1.258   1_556  A
O319       Cr327   1.970       .  S
O319        C320   1.264       .  A
C320        O321   1.275       .  A
C320       C1802   1.481       .  S
O321       Cr328   2.025       .  S
O322       Cr328   2.005       .  S
O322        C323   1.267       .  A
C323        O324   1.262       .  A
C323       C1522   1.471       .  S
O324       Cr329   1.987       .  S
O325       Cr329   1.995       .  S
O325        C326   1.259       .  A
C326        C893   1.482   1_554  S
Cr327       O330   1.772       .  S
Cr328       O330   1.768       .  S
Cr329       O330   1.769       .  S
O331       Cr349   1.995       .  S
O331        C339   1.266       .  A
O332       Cr349   1.963       .  S
O332        C333   1.257       .  A
C333        O334   1.275       .  A
C333        C882   1.483       .  S
O334       Cr350   2.049       .  S
O335       Cr350   2.002       .  S
O335        C336   1.268       .  A
C336        O337   1.267       .  A
C336       C1542   1.493       .  S
O337       Cr351   2.006       .  S
O338       Cr351   1.967       .  S
O338        C339   1.258       .  A
C339        C813   1.466       .  S
O340       Cr349   1.978       .  S
O340        C348   1.259       .  A
O341       Cr349   2.003       .  S
O341        C342   1.264       .  A
C342        O343   1.264       .  A
C342       C1902   1.481       .  S
O343       Cr350   1.990       .  S
O344       Cr350   2.042       .  S
O344        C345   1.272       .  A
C345        O346   1.252       .  A
C345       C1733   1.469       .  S
O346       Cr351   1.948       .  S
O347       Cr351   1.999       .  S
O347        C348   1.264       .  A
C348        C782   1.471       .  S
Cr349       O352   1.762       .  S
Cr350       O352   1.771       .  S
Cr351       O352   1.759       .  S
O353       Cr371   1.970       .  S
O353        C361   1.263       .  A
O354       Cr371   1.994       .  S
O354        C355   1.261       .  A
C355        O356   1.267       .  A
C355        C713   1.478       .  S
O356       Cr372   2.012       .  S
O357       Cr372   2.035       .  S
O357        C358   1.273       .  A
C358        O359   1.262       .  A
C358        C802   1.499       .  S
O359       Cr373   1.982       .  S
O360       Cr373   1.984       .  S
O360        C361   1.264       .  A
C361        C762   1.463       .  S
O362       Cr371   1.995       .  S
O362        C370   1.261       .  A
O363       Cr371   1.965       .  S
O363        C364   1.260       .  A
C364        O365   1.271       .  A
C364        C733   1.480       .  S
O365       Cr372   2.022       .  S
O366       Cr372   1.989       .  S
O366        C367   1.260       .  A
C367        O368   1.259       .  A
C367        C773   1.461       .  S
O368       Cr373   1.988       .  S
O369       Cr373   2.004       .  S
O369        C370   1.265       .  A
C370       C1702   1.489       .  S
Cr371       O374   1.766       .  S
Cr372       O374   1.771       .  S
Cr373       O374   1.772       .  S
O375       Cr393   1.975   1_545  S
O375        C383   1.261       .  A
O376       Cr393   1.993       .  S
O376        C377   1.260       .  A
C377        O378   1.267       .  A
C377       C1662   1.480       .  S
O378       Cr394   2.016       .  S
O379       Cr394   2.028       .  S
O379        C380   1.272       .  A
C380        O381   1.258       .  A
C380       C1042   1.489       .  S
O381       Cr395   1.969       .  S
O382       Cr395   1.980   1_545  S
O382        C383   1.262       .  A
C383        C753   1.464       .  S
O384       Cr393   2.006       .  S
O384        C392   1.264       .  A
O385       Cr393   1.964       .  S
O385        C386   1.262       .  A
C386        O387   1.271       .  A
C386        C673   1.479       .  S
O387       Cr394   2.019       .  S
O388       Cr394   1.999       .  S
O388        C389   1.262       .  A
C389        O390   1.259       .  A
C389       C1022   1.467       .  S
O390       Cr395   1.989       .  S
O391       Cr395   1.992       .  S
O391        C392   1.263       .  A
C392        C693   1.487       .  S
Cr393       O396   1.767       .  S
Cr394       O396   1.771       .  S
Cr395       O396   1.771       .  S
O397       Cr415   1.980       .  S
O397        C405   1.263       .  A
O398       Cr415   1.979       .  S
O398        C399   1.256       .  A
C399        O400   1.269       .  A
C399       C1873   1.481       .  S
O400       Cr416   2.028       .  S
O401       Cr416   2.040       .  S
O401        C402   1.275       .  A
C402        O403   1.261       .  A
C402       C1222   1.499       .  S
O403       Cr417   1.975       .  S
O404       Cr417   1.977       .  S
O404        C405   1.263       .  A
C405        C653   1.464       .  S
O406       Cr415   1.990       .  S
O406        C414   1.261       .  A
O407       Cr415   1.968       .  S
O407        C408   1.263       .  A
C408        O409   1.273       .  A
C408        C682   1.481       .  S
O409       Cr416   2.021       .  S
O410       Cr416   2.007       .  S
O410        C411   1.263       .  A
C411        O412   1.255       .  A
C411       C1202   1.464       .  S
O412       Cr417   1.973       .  S
O413       Cr417   2.007       .  S
O413        C414   1.264       .  A
C414        C853   1.488       .  S
Cr415       O418   1.766       .  S
Cr416       O418   1.770       .  S
Cr417       O418   1.770       .  S
O419       Cr437   1.976       .  S
O419        C427   1.263       .  A
O420       Cr437   1.980       .  S
O420        C421   1.255       .  A
C421        O422   1.267       .  A
C421        C842   1.476       .  S
O422       Cr438   2.020       .  S
O423       Cr438   2.031       .  S
O423        C424   1.273       .  A
C424        O425   1.262       .  A
C424        C622   1.501       .  S
O425       Cr439   1.988       .  S
O426       Cr439   1.979       .  S
O426        C427   1.263       .  A
C427        C662   1.463       .  S
O428       Cr437   1.983       .  S
O428        C436   1.259       .  A
O429       Cr437   1.970       .  S
O429        C430   1.263       .  A
C430        O431   1.272       .  A
C430        C742   1.478       .  S
O431       Cr438   2.019       .  S
O432       Cr438   1.997       .  S
O432        C433   1.261       .  A
C433        O434   1.259       .  A
C433        C633   1.464       .  S
O434       Cr439   1.980       .  S
O435       Cr439   2.009       .  S
O435        C436   1.265       .  A
C436       C1913   1.485       .  S
Cr437       O440   1.769       .  S
Cr438       O440   1.771       .  S
Cr439       O440   1.774       .  S
O441       Cr459   1.997   1_655  S
O441        C449   1.266       .  A
O442       Cr459   1.957       .  S
O442        C443   1.254       .  A
C443        O444   1.277       .  A
C443        C573   1.481       .  S
O444       Cr460   2.061       .  S
O445       Cr460   2.006       .  S
O445        C446   1.266       .  A
C446        O447   1.266       .  A
C446       C1762   1.496       .  S
O447       Cr461   2.008       .  S
O448       Cr461   1.964       .  S
O448        C449   1.258   1_455  A
C449        C602   1.465       .  S
O450       Cr459   1.975       .  S
O450        C458   1.259       .  A
O451       Cr459   2.004       .  S
O451        C452   1.265       .  A
C452        O453   1.261       .  A
C452       C1673   1.479       .  S
O453       Cr460   1.983       .  S
O454       Cr460   2.056       .  S
O454        C455   1.277       .  A
C455        O456   1.254       .  A
C455       C1962   1.482       .  S
O456       Cr461   1.944       .  S
O457       Cr461   2.007       .  S
O457        C458   1.266       .  A
C458        C642   1.469       .  S
Cr459       O462   1.766       .  S
Cr460       O462   1.770       .  S
Cr461       O462   1.759       .  S
O463       Cr481   1.972       .  S
O463        C471   1.264       .  A
O464       Cr481   1.981       .  S
O464        C465   1.252       .  A
C465        O466   1.269       .  A
C465        C613   1.489       .  S
O466       Cr482   2.041       .  S
O467       Cr482   2.033       .  S
O467        C468   1.272       .  A
C468        O469   1.257       .  A
C468       C1422   1.494       .  S
O469       Cr483   1.970       .  S
O470       Cr483   1.986       .  S
O470        C471   1.267       .  A
C471        C593   1.461       .  S
O472       Cr481   1.977       .  S
O472        C480   1.256       .  A
O473       Cr481   1.965       .  S
O473        C474   1.264       .  A
C474        O475   1.278       .  A
C474       C1582   1.485       .  S
O475       Cr482   2.038       .  S
O476       Cr482   2.002       .  S
O476        C477   1.266       .  A
C477        O478   1.262       .  A
C477       C1393   1.477       .  S
O478       Cr483   1.989       .  S
O479       Cr483   2.004       .  S
O479        C480   1.262       .  A
C480        C553   1.480       .  S
Cr481       O484   1.766       .  S
Cr482       O484   1.765       .  S
Cr483       O484   1.769       .  S
O485       Cr503   1.999       .  S
O485        C493   1.265       .  A
O486       Cr503   1.957       .  S
O486        C487   1.255       .  A
C487        O488   1.274       .  A
C487        C962   1.474       .  S
O488       Cr504   2.050       .  S
O489       Cr504   2.003       .  S
O489        C490   1.268       .  A
C490        O491   1.270       .  A
C490        C582   1.498       .  S
O491       Cr505   2.015       .  S
O492       Cr505   1.954       .  S
O492        C493   1.254       .  A
C493        C542   1.464       .  S
O494       Cr503   1.972       .  S
O494        C502   1.259       .  A
O495       Cr503   2.010       .  S
O495        C496   1.267       .  A
C496        O497   1.263       .  A
C496       C1262   1.482       .  S
O497       Cr504   1.984       .  S
O498       Cr504   2.043       .  S
O498        C499   1.271       .  A
C499        O500   1.250       .  A
C499        C562   1.467       .  S
O500       Cr505   1.939       .  S
O501       Cr505   2.010       .  S
O501        C502   1.267       .  A
C502       C1382   1.473       .  S
Cr503       O506   1.763       .  S
Cr504       O506   1.772       .  S
Cr505       O506   1.752       .  S
O507       Cr525   1.964   1_554  S
O507        C515   1.260       .  A
O508       Cr525   1.981       .  S
O508        C509   1.254       .  A
C509        O510   1.272       .  A
C509       C1342   1.484       .  S
O510       Cr526   2.042       .  S
O511       Cr526   2.025       .  S
O511        C512   1.270       .  A
C512        O513   1.260       .  A
C512        C722   1.495       .  S
O513       Cr527   1.982       .  S
O514       Cr527   1.988   1_554  S
O514        C515   1.267       .  A
C515        C533   1.461       .  S
O516       Cr525   1.988   1_554  S
O516        C524   1.259       .  A
O517       Cr525   1.964       .  S
O517        C518   1.263       .  A
C518        O519   1.273       .  A
C518       C1162   1.477       .  S
O519       Cr526   2.025       .  S
O520       Cr526   2.020       .  S
O520        C521   1.269       .  A
C521        O522   1.261       .  A
C521        C702   1.488       .  S
O522       Cr527   1.977       .  S
O523       Cr527   1.997       .  S
O523        C524   1.262   1_556  A
C524       C1002   1.481       .  S
Cr525       O528   1.767       .  S
Cr526       O528   1.764       .  S
Cr527       O528   1.761       .  S
C529        C530   1.402       .  A
C529        C534   1.393       .  A
C529        H539   1.083       .  S
C530        C535   1.456       .  S
C530        C531   1.399       .  A
C531        C532   1.387       .  A
C531        H536   1.084       .  S
C532        C533   1.403       .  A
C532        H537   1.083       .  S
C533        C534   1.403       .  A
C534        H538   1.083       .  S
C535        C540   1.398       .  A
C535        C544   1.401       .  A
C540        C541   1.394       .  A
C540        H545   1.083       .  S
C541        C542   1.408       .  A
C541        H546   1.083       .  S
C542        C543   1.402       .  A
C543        C544   1.386       .  A
C543        H547   1.083       .  S
C544        H548   1.084       .  S
C549        C550   1.397       .  A
C549        C554   1.391       .  A
C549        H559   1.083       .  S
C550        C555   1.478       .  S
C550        C551   1.410       .  A
C551        C552   1.402       .  A
C551        H556   1.083       .  S
C552        C553   1.403       .  A
C552        H557   1.083       .  S
C553        C554   1.410       .  A
C554        H558   1.083       .  S
C555        C560   1.408       .  A
C555        C564   1.399       .  A
C560        C561   1.401       .  A
C560        H565   1.083       .  S
C561        C562   1.402       .  A
C561        H566   1.084       .  S
C562        C563   1.406       .  A
C563        C564   1.393       .  A
C563        H567   1.084       .  S
C564        H568   1.083       .  S
C569        C570   1.411       .  A
C569        C574   1.405       .  A
C569        H579   1.082       .  S
C570        C575   1.511   1_455  S
C570        C571   1.414       .  A
C571        C572   1.406       .  A
C571        H576   1.082   1_455  S
C572        C573   1.403       .  A
C572        H577   1.083       .  S
C573        C574   1.405       .  A
C574        H578   1.083       .  S
C575        C580   1.414       .  A
C575        C584   1.409       .  A
C580        C581   1.410       .  A
C580        H585   1.082   1_655  S
C581        C582   1.408       .  A
C581        H586   1.082       .  S
C582        C583   1.407       .  A
C583        C584   1.400       .  A
C583        H587   1.083       .  S
C584        H588   1.081       .  S
C589        C590   1.403       .  A
C589        C594   1.390       .  A
C589        H599   1.084       .  S
C590        C595   1.461       .  S
C590        C591   1.398       .  A
C591        C592   1.390       .  A
C591        H596   1.083       .  S
C592        C593   1.406       .  A
C592        H597   1.084       .  S
C593        C594   1.400       .  A
C594        H598   1.083       .  S
C595        C600   1.400       .  A
C595        C604   1.401       .  A
C600        C601   1.395       .  A
C600        H605   1.083       .  S
C601        C602   1.406       .  A
C601        H606   1.083       .  S
C602        C603   1.403       .  A
C603        C604   1.386       .  A
C603        H607   1.084       .  S
C604        H608   1.084       .  S
C609        C610   1.414       .  A
C609        C614   1.412       .  A
C609        H619   1.082       .  S
C610        C615   1.509       .  S
C610        C611   1.408       .  A
C611        C612   1.402       .  A
C611        H616   1.083       .  S
C612        C613   1.406       .  A
C612        H617   1.083       .  S
C613        C614   1.406       .  A
C614        H618   1.083       .  S
C615        C620   1.410       .  A
C615        C624   1.412       .  A
C620        C621   1.410       .  A
C620        H625   1.083       .  S
C621        C622   1.411       .  A
C621        H626   1.083       .  S
C622        C623   1.406       .  A
C623        C624   1.404       .  A
C623        H627   1.083       .  S
C624        H628   1.082       .  S
C629        C630   1.404       .  A
C629        C634   1.395       .  A
C629        H639   1.083       .  S
C630        C635   1.477       .  S
C630        C631   1.405       .  A
C631        C632   1.401       .  A
C631        H636   1.083   1_655  S
C632        C633   1.403       .  A
C632        H637   1.083       .  S
C633        C634   1.401       .  A
C634        H638   1.084       .  S
C635        C640   1.404       .  A
C635        C644   1.405   1_655  A
C640        C641   1.399       .  A
C640        H645   1.083       .  S
C641        C642   1.403   1_655  A
C641        H646   1.083       .  S
C642        C643   1.402       .  A
C643        C644   1.397       .  A
C643        H647   1.084       .  S
C644        H648   1.083       .  S
C649        C650   1.396       .  A
C649        C654   1.387       .  A
C649        H659   1.083       .  S
C650        C655   1.459       .  S
C650        C651   1.404       .  A
C651        C652   1.393       .  A
C651        H656   1.084       .  S
C652        C653   1.401       .  A
C652        H657   1.083       .  S
C653        C654   1.407       .  A
C654        H658   1.084       .  S
C655        C660   1.405       .  A
C655        C664   1.396       .  A
C660        C661   1.391       .  A
C660        H665   1.084       .  S
C661        C662   1.400       .  A
C661        H666   1.083       .  S
C662        C663   1.408       .  A
C663        C664   1.389       .  A
C663        H667   1.084       .  S
C664        H668   1.083       .  S
C669        C670   1.403       .  A
C669        C674   1.394       .  A
C669        H679   1.083       .  S
C670        C675   1.482       .  S
C670        C671   1.406       .  A
C671        C672   1.400       .  A
C671        H676   1.083       .  S
C672        C673   1.406       .  A
C672        H677   1.083       .  S
C673        C674   1.405       .  A
C674        H678   1.083       .  S
C675        C680   1.404       .  A
C675        C684   1.405       .  A
C680        C681   1.398   1_455  A
C680        H685   1.083       .  S
C681        C682   1.407       .  A
C681        H686   1.083       .  S
C682        C683   1.405       .  A
C683        C684   1.397   1_655  A
C683        H687   1.083       .  S
C684        H688   1.083       .  S
C689        C690   1.403       .  A
C689        C694   1.401   1_655  A
C689        H699   1.083       .  S
C690        C695   1.489       .  S
C690        C691   1.409   1_545  A
C691        C692   1.401   1_655  A
C691        H696   1.083       .  S
C692        C693   1.404       .  A
C692        H697   1.083       .  S
C693        C694   1.410   1_565  A
C694        H698   1.083       .  S
C695        C700   1.399       .  A
C695        C704   1.412       .  A
C700        C701   1.388       .  A
C700        H705   1.083       .  S
C701        C702   1.408       .  A
C701        H706   1.083       .  S
C702        C703   1.407       .  A
C703        C704   1.411       .  A
C703        H707   1.082       .  S
C704        H708   1.083       .  S
C709        C710   1.407       .  A
C709        C714   1.401       .  A
C709        H719   1.083       .  S
C710        C715   1.498       .  S
C710        C711   1.411   1_655  A
C711        C712   1.406       .  A
C711        H716   1.082       .  S
C712        C713   1.403       .  A
C712        H717   1.083       .  S
C713        C714   1.405   1_455  A
C714        H718   1.084       .  S
C715        C720   1.407       .  A
C715        C724   1.409       .  A
C720        C721   1.405       .  A
C720        H725   1.083       .  S
C721        C722   1.410       .  A
C721        H726   1.083   1_556  S
C722        C723   1.407       .  A
C723        C724   1.403       .  A
C723        H727   1.083       .  S
C724        H728   1.083       .  S
C729        C730   1.402   1_455  A
C729        C734   1.395       .  A
C729        H739   1.083       .  S
C730        C735   1.477       .  S
C730        C731   1.404   1_655  A
C731        C732   1.400       .  A
C731        H736   1.083   1_455  S
C732        C733   1.406       .  A
C732        H737   1.083       .  S
C733        C734   1.407       .  A
C734        H738   1.083       .  S
C735        C740   1.403       .  A
C735        C744   1.404       .  A
C740        C741   1.398       .  A
C740        H745   1.083   1_655  S
C741        C742   1.406       .  A
C741        H746   1.083       .  S
C742        C743   1.405       .  A
C743        C744   1.398       .  A
C743        H747   1.083       .  S
C744        H748   1.083       .  S
C749        C750   1.396       .  A
C749        C754   1.385       .  A
C749        H759   1.083       .  S
C750        C755   1.458       .  S
C750        C751   1.403       .  A
C751        C752   1.394       .  A
C751        H756   1.084       .  S
C752        C753   1.403       .  A
C752        H757   1.083       .  S
C753        C754   1.406       .  A
C754        H758   1.083       .  S
C755        C760   1.403       .  A
C755        C764   1.397       .  A
C760        C761   1.389       .  A
C760        H765   1.084       .  S
C761        C762   1.401       .  A
C761        H766   1.083       .  S
C762        C763   1.408       .  A
C763        C764   1.390       .  A
C763        H767   1.083       .  S
C764        H768   1.083       .  S
C769        C770   1.403       .  A
C769        C774   1.395       .  A
C769        H779   1.084       .  S
C770        C775   1.468       .  S
C770        C771   1.401       .  A
C771        C772   1.397       .  A
C771        H776   1.083       .  S
C772        C773   1.403       .  A
C772        H777   1.084       .  S
C773        C774   1.401       .  A
C774        H778   1.083       .  S
C775        C780   1.401       .  A
C775        C784   1.402       .  A
C780        C781   1.397       .  A
C780        H785   1.083       .  S
C781        C782   1.405       .  A
C781        H786   1.083       .  S
C782        C783   1.405       .  A
C783        C784   1.395       .  A
C783        H787   1.084       .  S
C784        H788   1.084       .  S
C789        C790   1.413   1_556  A
C789        C794   1.408   1_556  A
C789        H799   1.082       .  S
C790        C795   1.507   1_554  S
C790        C791   1.409       .  A
C791        C792   1.403       .  A
C791        H796   1.082       .  S
C792        C793   1.406       .  A
C792        H797   1.084       .  S
C793        C794   1.404       .  A
C794        H798   1.083       .  S
C795        C800   1.412       .  A
C795        C804   1.409       .  A
C800        C801   1.405       .  A
C800        H805   1.082       .  S
C801        C802   1.406       .  A
C801        H806   1.083       .  S
C802        C803   1.410       .  A
C803        C804   1.406       .  A
C803        H807   1.083       .  S
C804        H808   1.082       .  S
C809        C810   1.403       .  A
C809        C814   1.398       .  A
C809        H819   1.083       .  S
C810        C815   1.466       .  S
C810        C811   1.401       .  A
C811        C812   1.385       .  A
C811        H816   1.084       .  S
C812        C813   1.403       .  A
C812        H817   1.083       .  S
C813        C814   1.405       .  A
C814        H818   1.083       .  S
C815        C820   1.404       .  A
C815        C824   1.400       .  A
C820        C821   1.393       .  A
C820        H825   1.084       .  S
C821        C822   1.404       .  A
C821        H826   1.083       .  S
C822        C823   1.405       .  A
C823        C824   1.391       .  A
C823        H827   1.083       .  S
C824        H828   1.083       .  S
C829        C830   1.406       .  A
C829        C834   1.403       .  A
C829        H839   1.083       .  S
C830        C835   1.499       .  S
C830        C831   1.410       .  A
C831        C832   1.405       .  A
C831        H836   1.083       .  S
C832        C833   1.406       .  A
C832        H837   1.083       .  S
C833        C834   1.410       .  A
C834        H838   1.083       .  S
C835        C840   1.408       .  A
C835        C844   1.409       .  A
C840        C841   1.404       .  A
C840        H845   1.083       .  S
C841        C842   1.404       .  A
C841        H846   1.083       .  S
C842        C843   1.404       .  A
C843        C844   1.403       .  A
C843        H847   1.084       .  S
C844        H848   1.083       .  S
C849        C850   1.401       .  A
C849        C854   1.394       .  A
C849        H859   1.083       .  S
C850        C855   1.487       .  S
C850        C851   1.409       .  A
C851        C852   1.407       .  A
C851        H856   1.083       .  S
C852        C853   1.406       .  A
C852        H857   1.083       .  S
C853        C854   1.409       .  A
C854        H858   1.083       .  S
C855        C860   1.406       .  A
C855        C864   1.406       .  A
C860        C861   1.396       .  A
C860        H865   1.083       .  S
C861        C862   1.402       .  A
C861        H866   1.084       .  S
C862        C863   1.405       .  A
C863        C864   1.404       .  A
C863        H867   1.083       .  S
C864        H868   1.083       .  S
C869        C870   1.405       .  A
C869        C874   1.401       .  A
C869        H879   1.083       .  S
C870        C875   1.494       .  S
C870        C871   1.408       .  A
C871        C872   1.406       .  A
C871        H876   1.083       .  S
C872        C873   1.408       .  A
C872        H877   1.083       .  S
C873        C874   1.409       .  A
C874        H878   1.083       .  S
C875        C880   1.408       .  A
C875        C884   1.407       .  A
C880        C881   1.406       .  A
C880        H885   1.083       .  S
C881        C882   1.406       .  A
C881        H886   1.083       .  S
C882        C883   1.405       .  A
C883        C884   1.400       .  A
C883        H887   1.084       .  S
C884        H888   1.083       .  S
C889        C890   1.402       .  A
C889        C894   1.396       .  A
C889        H899   1.083       .  S
C890        C895   1.485       .  S
C890        C891   1.408       .  A
C891        C892   1.402       .  A
C891        H896   1.083       .  S
C892        C893   1.405       .  A
C892        H897   1.083   1_556  S
C893        C894   1.408       .  A
C894        H898   1.083       .  S
C895        C900   1.405       .  A
C895        C904   1.406       .  A
C900        C901   1.398       .  A
C900        H905   1.083       .  S
C901        C902   1.404       .  A
C901        H906   1.084       .  S
C902        C903   1.403       .  A
C903        C904   1.401       .  A
C903        H907   1.083       .  S
C904        H908   1.083       .  S
C909        C910   1.406       .  A
C909        C914   1.389       .  A
C909        H919   1.083       .  S
C910        C915   1.465       .  S
C910        C911   1.398       .  A
C911        C912   1.389       .  A
C911        H916   1.084       .  S
C912        C913   1.409       .  A
C912        H917   1.084       .  S
C913        C914   1.398       .  A
C914        H918   1.083       .  S
C915        C920   1.398       .  A
C915        C924   1.406       .  A
C920        C921   1.384       .  A
C920        H925   1.083       .  S
C921        C922   1.405       .  A
C921        H926   1.083       .  S
C922        C923   1.403       .  A
C923        C924   1.395       .  A
C923        H927   1.083       .  S
C924        H928   1.083       .  S
C929        C930   1.402       .  A
C929        C934   1.388       .  A
C929        H939   1.083       .  S
C930        C935   1.473       .  S
C930        C931   1.407       .  A
C931        C932   1.395       .  A
C931        H936   1.084       .  S
C932        C933   1.402       .  A
C932        H937   1.083       .  S
C933        C934   1.403       .  A
C934        H938   1.084       .  S
C935        C940   1.403       .  A
C935        C944   1.405       .  A
C940        C941   1.387       .  A
C940        H945   1.083       .  S
C941        C942   1.402       .  A
C941        H946   1.084       .  S
C942        C943   1.404       .  A
C943        C944   1.397       .  A
C943        H947   1.083       .  S
C944        H948   1.083       .  S
C949        C950   1.406       .  A
C949        C954   1.395       .  A
C949        H959   1.083       .  S
C950        C955   1.498       .  S
C950        C951   1.411       .  A
C951        C952   1.409       .  A
C951        H956   1.082       .  S
C952        C953   1.407       .  A
C952        H957   1.083       .  S
C953        C954   1.407       .  A
C954        H958   1.083       .  S
C955        C960   1.409   1_565  A
C955        C964   1.408       .  A
C960        C961   1.399       .  A
C960        H965   1.083       .  S
C961        C962   1.402       .  A
C961        H966   1.084       .  S
C962        C963   1.405   1_545  A
C963        C964   1.405       .  A
C963        H967   1.083       .  S
C964        H968   1.083       .  S
C969        C970   1.407       .  A
C969        C974   1.392       .  A
C969        H979   1.083       .  S
C970        C975   1.488       .  S
C970        C971   1.408       .  A
C971        C972   1.402       .  A
C971        H976   1.082       .  S
C972        C973   1.405       .  A
C972        H977   1.083       .  S
C973        C974   1.402       .  A
C974        H978   1.083       .  S
C975        C980   1.404       .  A
C975        C984   1.410       .  A
C980        C981   1.390   1_554  A
C980        H985   1.083       .  S
C981        C982   1.403       .  A
C981        H986   1.083       .  S
C982        C983   1.404       .  A
C983        C984   1.404   1_556  A
C983        H987   1.083       .  S
C984        H988   1.082       .  S
C989        C990   1.402       .  A
C989        C994   1.394       .  A
C989        H999   1.083       .  S
C990        C995   1.482       .  S
C990        C991   1.408       .  A
C991        C992   1.402       .  A
C991        H996   1.083       .  S
C992        C993   1.403       .  A
C992        H997   1.083       .  S
C993        C994   1.406       .  A
C994        H998   1.084       .  S
C995       C1000   1.409       .  A
C995       C1004   1.400       .  A
C1000      C1001   1.399   1_565  A
C1000      H1005   1.083       .  S
C1001      C1002   1.403       .  A
C1001      H1006   1.083   1_554  S
C1002      C1003   1.409       .  A
C1003      C1004   1.396   1_545  A
C1003      H1007   1.083       .  S
C1004      H1008   1.083       .  S
C1009      C1010   1.403       .  A
C1009      C1014   1.395   1_556  A
C1009      H1019   1.083       .  S
C1010      C1015   1.478       .  S
C1010      C1011   1.404       .  A
C1011      C1012   1.402   1_556  A
C1011      H1016   1.083       .  S
C1012      C1013   1.407       .  A
C1012      H1017   1.083       .  S
C1013      C1014   1.403       .  A
C1014      H1018   1.083   1_455  S
C1015      C1020   1.404       .  A
C1015      C1024   1.404       .  A
C1020      C1021   1.399       .  A
C1020      H1025   1.083       .  S
C1021      C1022   1.402       .  A
C1021      H1026   1.083       .  S
C1022      C1023   1.403       .  A
C1023      C1024   1.400       .  A
C1023      H1027   1.084       .  S
C1024      H1028   1.083       .  S
C1029      C1030   1.410   1_554  A
C1029      C1034   1.404       .  A
C1029      H1039   1.082       .  S
C1030      C1035   1.495       .  S
C1030      C1031   1.406       .  A
C1031      C1032   1.398       .  A
C1031      H1036   1.083       .  S
C1032      C1033   1.404   1_556  A
C1032      H1037   1.084       .  S
C1033      C1034   1.402       .  A
C1034      H1038   1.084       .  S
C1035      C1040   1.410       .  A
C1035      C1044   1.405       .  A
C1040      C1041   1.400       .  A
C1040      H1045   1.082       .  S
C1041      C1042   1.404       .  A
C1041      H1046   1.083       .  S
C1042      C1043   1.410       .  A
C1043      C1044   1.402       .  A
C1043      H1047   1.083       .  S
C1044      H1048   1.083       .  S
C1049      C1050   1.408   1_545  A
C1049      C1054   1.403       .  A
C1049      H1059   1.083       .  S
C1050      C1055   1.506       .  S
C1050      C1051   1.413       .  A
C1051      C1052   1.407       .  A
C1051      H1056   1.082       .  S
C1052      C1053   1.404   1_565  A
C1052      H1057   1.084       .  S
C1053      C1054   1.407       .  A
C1054      H1058   1.083       .  S
C1055      C1060   1.406       .  A
C1055      C1064   1.413       .  A
C1060      C1061   1.402       .  A
C1060      H1065   1.082       .  S
C1061      C1062   1.410       .  A
C1061      H1066   1.083       .  S
C1062      C1063   1.406       .  A
C1063      C1064   1.408       .  A
C1063      H1067   1.083       .  S
C1064      H1068   1.082       .  S
C1069      C1070   1.404       .  A
C1069      C1074   1.396       .  A
C1069      H1079   1.083   1_556  S
C1070      C1075   1.485       .  S
C1070      C1071   1.406       .  A
C1071      C1072   1.401       .  A
C1071      H1076   1.083       .  S
C1072      C1073   1.407       .  A
C1072      H1077   1.083       .  S
C1073      C1074   1.406       .  A
C1074      H1078   1.083       .  S
C1075      C1080   1.405       .  A
C1075      C1084   1.406   1_556  A
C1080      C1081   1.399   1_556  A
C1080      H1085   1.083       .  S
C1081      C1082   1.406       .  A
C1081      H1086   1.083       .  S
C1082      C1083   1.404       .  A
C1083      C1084   1.397       .  A
C1083      H1087   1.083       .  S
C1084      H1088   1.083       .  S
C1089      C1090   1.403       .  A
C1089      C1094   1.396       .  A
C1089      H1099   1.084       .  S
C1090      C1095   1.475       .  S
C1090      C1091   1.404       .  A
C1091      C1092   1.401       .  A
C1091      H1096   1.083       .  S
C1092      C1093   1.404       .  A
C1092      H1097   1.084       .  S
C1093      C1094   1.401       .  A
C1094      H1098   1.083       .  S
C1095      C1100   1.402       .  A
C1095      C1104   1.404       .  A
C1100      C1101   1.399       .  A
C1100      H1105   1.083       .  S
C1101      C1102   1.406       .  A
C1101      H1106   1.083       .  S
C1102      C1103   1.404       .  A
C1103      C1104   1.398       .  A
C1103      H1107   1.083       .  S
C1104      H1108   1.084       .  S
C1109      C1110   1.403       .  A
C1109      C1114   1.394       .  A
C1109      H1119   1.084       .  S
C1110      C1115   1.462       .  S
C1110      C1111   1.398       .  A
C1111      C1112   1.390       .  A
C1111      H1116   1.083       .  S
C1112      C1113   1.406       .  A
C1112      H1117   1.083       .  S
C1113      C1114   1.403       .  A
C1114      H1118   1.083       .  S
C1115      C1120   1.401       .  A
C1115      C1124   1.402       .  A
C1120      C1121   1.396       .  A
C1120      H1125   1.083       .  S
C1121      C1122   1.403       .  A
C1121      H1126   1.083       .  S
C1122      C1123   1.398       .  A
C1123      C1124   1.388       .  A
C1123      H1127   1.084       .  S
C1124      H1128   1.084       .  S
C1129      C1130   1.408       .  A
C1129      C1134   1.405       .  A
C1129      H1139   1.083       .  S
C1130      C1135   1.510       .  S
C1130      C1131   1.414       .  A
C1131      C1132   1.412       .  A
C1131      H1136   1.082       .  S
C1132      C1133   1.406       .  A
C1132      H1137   1.083       .  S
C1133      C1134   1.407       .  A
C1134      H1138   1.083       .  S
C1135      C1140   1.413       .  A
C1135      C1144   1.408       .  A
C1140      C1141   1.409       .  A
C1140      H1145   1.082       .  S
C1141      C1142   1.407       .  A
C1141      H1146   1.083       .  S
C1142      C1143   1.412       .  A
C1143      C1144   1.407       .  A
C1143      H1147   1.082       .  S
C1144      H1148   1.083       .  S
C1149      C1150   1.403   1_565  A
C1149      C1154   1.396       .  A
C1149      H1159   1.083       .  S
C1150      C1155   1.482       .  S
C1150      C1151   1.406   1_545  A
C1151      C1152   1.398       .  A
C1151      H1156   1.084       .  S
C1152      C1153   1.404       .  A
C1152      H1157   1.083       .  S
C1153      C1154   1.408       .  A
C1154      H1158   1.084       .  S
C1155      C1160   1.404       .  A
C1155      C1164   1.406       .  A
C1160      C1161   1.395       .  A
C1160      H1165   1.079   1_545  S
C1161      C1162   1.404       .  A
C1161      H1166   1.088       .  S
C1162      C1163   1.406       .  A
C1163      C1164   1.399       .  A
C1163      H1167   1.079       .  S
C1164      H1168   1.088       .  S
C1169      C1170   1.402       .  A
C1169      C1174   1.401       .  A
C1169      H1179   1.083       .  S
C1170      C1175   1.470       .  S
C1170      C1171   1.401       .  A
C1171      C1172   1.393       .  A
C1171      H1176   1.084       .  S
C1172      C1173   1.402       .  A
C1172      H1177   1.084       .  S
C1173      C1174   1.405       .  A
C1174      H1178   1.083       .  S
C1175      C1180   1.406       .  A
C1175      C1184   1.397       .  A
C1180      C1181   1.402       .  A
C1180      H1185   1.083       .  S
C1181      C1182   1.404       .  A
C1181      H1186   1.083       .  S
C1182      C1183   1.408       .  A
C1183      C1184   1.393       .  A
C1183      H1187   1.083       .  S
C1184      H1188   1.083       .  S
C1189      C1190   1.409       .  A
C1189      C1194   1.405       .  A
C1189      H1199   1.083       .  S
C1190      C1195   1.482       .  S
C1190      C1191   1.400       .  A
C1191      C1192   1.394       .  A
C1191      H1196   1.083       .  S
C1192      C1193   1.408       .  A
C1192      H1197   1.083       .  S
C1193      C1194   1.404       .  A
C1194      H1198   1.083       .  S
C1195      C1200   1.403       .  A
C1195      C1204   1.407       .  A
C1200      C1201   1.399       .  A
C1200      H1205   1.083       .  S
C1201      C1202   1.404       .  A
C1201      H1206   1.084       .  S
C1202      C1203   1.401       .  A
C1203      C1204   1.399       .  A
C1203      H1207   1.083       .  S
C1204      H1208   1.083       .  S
C1209      C1210   1.412       .  A
C1209      C1214   1.409       .  A
C1209      H1219   1.082       .  S
C1210      C1215   1.504       .  S
C1210      C1211   1.407       .  A
C1211      C1212   1.403       .  A
C1211      H1216   1.083       .  S
C1212      C1213   1.407       .  A
C1212      H1217   1.083       .  S
C1213      C1214   1.405       .  A
C1214      H1218   1.084       .  S
C1215      C1220   1.406       .  A
C1215      C1224   1.412       .  A
C1220      C1221   1.404       .  A
C1220      H1225   1.083       .  S
C1221      C1222   1.411       .  A
C1221      H1226   1.082       .  S
C1222      C1223   1.407       .  A
C1223      C1224   1.407       .  A
C1223      H1227   1.083       .  S
C1224      H1228   1.082       .  S
C1229      C1230   1.406       .  A
C1229      C1234   1.401       .  A
C1229      H1239   1.083       .  S
C1230      C1235   1.498       .  S
C1230      C1231   1.410       .  A
C1231      C1232   1.408       .  A
C1231      H1236   1.082       .  S
C1232      C1233   1.408       .  A
C1232      H1237   1.083       .  S
C1233      C1234   1.409       .  A
C1234      H1238   1.083       .  S
C1235      C1240   1.407       .  A
C1235      C1244   1.409       .  A
C1240      C1241   1.400       .  A
C1240      H1245   1.083       .  S
C1241      C1242   1.406       .  A
C1241      H1246   1.083       .  S
C1242      C1243   1.406       .  A
C1243      C1244   1.408       .  A
C1243      H1247   1.083       .  S
C1244      H1248   1.083       .  S
C1249      C1250   1.406       .  A
C1249      C1254   1.394       .  A
C1249      H1259   1.082       .  S
C1250      C1255   1.493       .  S
C1250      C1251   1.411       .  A
C1251      C1252   1.403       .  A
C1251      H1256   1.082       .  S
C1252      C1253   1.403       .  A
C1252      H1257   1.083       .  S
C1253      C1254   1.404       .  A
C1254      H1258   1.083       .  S
C1255      C1260   1.409   1_565  A
C1255      C1264   1.407       .  A
C1260      C1261   1.397       .  A
C1260      H1265   1.083       .  S
C1261      C1262   1.404       .  A
C1261      H1266   1.083       .  S
C1262      C1263   1.406   1_545  A
C1263      C1264   1.400       .  A
C1263      H1267   1.083       .  S
C1264      H1268   1.082       .  S
C1269      C1270   1.404       .  A
C1269      C1274   1.401       .  A
C1269      H1279   1.083       .  S
C1270      C1275   1.481       .  S
C1270      C1271   1.405       .  A
C1271      C1272   1.399       .  A
C1271      H1276   1.083       .  S
C1272      C1273   1.403       .  A
C1272      H1277   1.084       .  S
C1273      C1274   1.404       .  A
C1274      H1278   1.084       .  S
C1275      C1280   1.406       .  A
C1275      C1284   1.401       .  A
C1280      C1281   1.401       .  A
C1280      H1285   1.084       .  S
C1281      C1282   1.406       .  A
C1281      H1286   1.083       .  S
C1282      C1283   1.409       .  A
C1283      C1284   1.398       .  A
C1283      H1287   1.083       .  S
C1284      H1288   1.083       .  S
C1289      C1290   1.395       .  A
C1289      C1294   1.384       .  A
C1289      H1299   1.083       .  S
C1290      C1295   1.457       .  S
C1290      C1291   1.404       .  A
C1291      C1292   1.394       .  A
C1291      H1296   1.084       .  S
C1292      C1293   1.402       .  A
C1292      H1297   1.083       .  S
C1293      C1294   1.407       .  A
C1294      H1298   1.084       .  S
C1295      C1300   1.404       .  A
C1295      C1304   1.394       .  A
C1300      C1301   1.392       .  A
C1300      H1305   1.084       .  S
C1301      C1302   1.401       .  A
C1301      H1306   1.083       .  S
C1302      C1303   1.407       .  A
C1303      C1304   1.385       .  A
C1303      H1307   1.084       .  S
C1304      H1308   1.083       .  S
C1309      C1310   1.408       .  A
C1309      C1314   1.407       .  A
C1309      H1319   1.083       .  S
C1310      C1315   1.494       .  S
C1310      C1311   1.406       .  A
C1311      C1312   1.402       .  A
C1311      H1316   1.083       .  S
C1312      C1313   1.406       .  A
C1312      H1317   1.083       .  S
C1313      C1314   1.406       .  A
C1314      H1318   1.083       .  S
C1315      C1320   1.405       .  A
C1315      C1324   1.407       .  A
C1320      C1321   1.404       .  A
C1320      H1325   1.083       .  S
C1321      C1322   1.410       .  A
C1321      H1326   1.083       .  S
C1322      C1323   1.409       .  A
C1323      C1324   1.405       .  A
C1323      H1327   1.083       .  S
C1324      H1328   1.083       .  S
C1329      C1330   1.416       .  A
C1329      C1334   1.406       .  A
C1329      H1339   1.080       .  S
C1330      C1335   1.518       .  S
C1330      C1331   1.413       .  A
C1331      C1332   1.406       .  A
C1331      H1336   1.081       .  S
C1332      C1333   1.407       .  A
C1332      H1337   1.083       .  S
C1333      C1334   1.403       .  A
C1334      H1338   1.084       .  S
C1335      C1340   1.416       .  A
C1335      C1344   1.413   1_554  A
C1340      C1341   1.408       .  A
C1340      H1345   1.081       .  S
C1341      C1342   1.405   1_554  A
C1341      H1346   1.083       .  S
C1342      C1343   1.404       .  A
C1343      C1344   1.404       .  A
C1343      H1347   1.083       .  S
C1344      H1348   1.081       .  S
C1349      C1350   1.407       .  A
C1349      C1354   1.393       .  A
C1349      H1359   1.082       .  S
C1350      C1355   1.490       .  S
C1350      C1351   1.409       .  A
C1351      C1352   1.401       .  A
C1351      H1356   1.082       .  S
C1352      C1353   1.404       .  A
C1352      H1357   1.083       .  S
C1353      C1354   1.402       .  A
C1354      H1358   1.083       .  S
C1355      C1360   1.407       .  A
C1355      C1364   1.409       .  A
C1360      C1361   1.393       .  A
C1360      H1365   1.082       .  S
C1361      C1362   1.403       .  A
C1361      H1366   1.083       .  S
C1362      C1363   1.405       .  A
C1363      C1364   1.401       .  A
C1363      H1367   1.083       .  S
C1364      H1368   1.082       .  S
C1369      C1370   1.400       .  A
C1369      C1374   1.395       .  A
C1369      H1379   1.084       .  S
C1370      C1375   1.470       .  S
C1370      C1371   1.404       .  A
C1371      C1372   1.400       .  A
C1371      H1376   1.083       .  S
C1372      C1373   1.402       .  A
C1372      H1377   1.084       .  S
C1373      C1374   1.405       .  A
C1374      H1378   1.084       .  S
C1375      C1380   1.402       .  A
C1375      C1384   1.401       .  A
C1380      C1381   1.393       .  A
C1380      H1385   1.084       .  S
C1381      C1382   1.403       .  A
C1381      H1386   1.083       .  S
C1382      C1383   1.407       .  A
C1383      C1384   1.401       .  A
C1383      H1387   1.083       .  S
C1384      H1388   1.083       .  S
C1389      C1390   1.402       .  A
C1389      C1394   1.397       .  A
C1389      H1399   1.084       .  S
C1390      C1395   1.477       .  S
C1390      C1391   1.404       .  A
C1391      C1392   1.403       .  A
C1391      H1396   1.083       .  S
C1392      C1393   1.405       .  A
C1392      H1397   1.083       .  S
C1393      C1394   1.405       .  A
C1394      H1398   1.084       .  S
C1395      C1400   1.403       .  A
C1395      C1404   1.404       .  A
C1400      C1401   1.400       .  A
C1400      H1405   1.083       .  S
C1401      C1402   1.405       .  A
C1401      H1406   1.083       .  S
C1402      C1403   1.403       .  A
C1403      C1404   1.399       .  A
C1403      H1407   1.083       .  S
C1404      H1408   1.083       .  S
C1409      C1410   1.412       .  A
C1409      C1414   1.407       .  A
C1409      H1419   1.082       .  S
C1410      C1415   1.501       .  S
C1410      C1411   1.406       .  A
C1411      C1412   1.400       .  A
C1411      H1416   1.083       .  S
C1412      C1413   1.406       .  A
C1412      H1417   1.083       .  S
C1413      C1414   1.403       .  A
C1414      H1418   1.084       .  S
C1415      C1420   1.412       .  A
C1415      C1424   1.406       .  A
C1420      C1421   1.404       .  A
C1420      H1425   1.082       .  S
C1421      C1422   1.405       .  A
C1421      H1426   1.083       .  S
C1422      C1423   1.411       .  A
C1423      C1424   1.403       .  A
C1423      H1427   1.083       .  S
C1424      H1428   1.083       .  S
C1429      C1430   1.407       .  A
C1429      C1434   1.407       .  A
C1429      H1439   1.083       .  S
C1430      C1435   1.503       .  S
C1430      C1431   1.410       .  A
C1431      C1432   1.405       .  A
C1431      H1436   1.083       .  S
C1432      C1433   1.407       .  A
C1432      H1437   1.083       .  S
C1433      C1434   1.411       .  A
C1434      H1438   1.083       .  S
C1435      C1440   1.406       .  A
C1435      C1444   1.412       .  A
C1440      C1441   1.401       .  A
C1440      H1445   1.083       .  S
C1441      C1442   1.406   1_554  A
C1441      H1446   1.083       .  S
C1442      C1443   1.405       .  A
C1443      C1444   1.410   1_556  A
C1443      H1447   1.084       .  S
C1444      H1448   1.082   1_554  S
C1449      C1450   1.408       .  A
C1449      C1454   1.401       .  A
C1449      H1459   1.082       .  S
C1450      C1455   1.493       .  S
C1450      C1451   1.407       .  A
C1451      C1452   1.398       .  A
C1451      H1456   1.082       .  S
C1452      C1453   1.404       .  A
C1452      H1457   1.083       .  S
C1453      C1454   1.405       .  A
C1454      H1458   1.083       .  S
C1455      C1460   1.408       .  A
C1455      C1464   1.406       .  A
C1460      C1461   1.399       .  A
C1460      H1465   1.082       .  S
C1461      C1462   1.405       .  A
C1461      H1466   1.083       .  S
C1462      C1463   1.407       .  A
C1463      C1464   1.399       .  A
C1463      H1467   1.083       .  S
C1464      H1468   1.082       .  S
C1469      C1470   1.409       .  A
C1469      C1474   1.405   1_554  A
C1469      H1479   1.083       .  S
C1470      C1475   1.481       .  S
C1470      C1471   1.398       .  A
C1471      C1472   1.392   1_554  A
C1471      H1476   1.083       .  S
C1472      C1473   1.409       .  A
C1472      H1477   1.084       .  S
C1473      C1474   1.404       .  A
C1474      H1478   1.083       .  S
C1475      C1480   1.402       .  A
C1475      C1484   1.408       .  A
C1480      C1481   1.398       .  A
C1480      H1485   1.083       .  S
C1481      C1482   1.403       .  A
C1481      H1486   1.084       .  S
C1482      C1483   1.400       .  A
C1483      C1484   1.399       .  A
C1483      H1487   1.083       .  S
C1484      H1488   1.084       .  S
C1489      C1490   1.401       .  A
C1489      C1494   1.394       .  A
C1489      H1499   1.083       .  S
C1490      C1495   1.469       .  S
C1490      C1491   1.403       .  A
C1491      C1492   1.392       .  A
C1491      H1496   1.084       .  S
C1492      C1493   1.404       .  A
C1492      H1497   1.083       .  S
C1493      C1494   1.405       .  A
C1494      H1498   1.083       .  S
C1495      C1500   1.400       .  A
C1495      C1504   1.404       .  A
C1500      C1501   1.386       .  A
C1500      H1505   1.083       .  S
C1501      C1502   1.404       .  A
C1501      H1506   1.084       .  S
C1502      C1503   1.405       .  A
C1503      C1504   1.399       .  A
C1503      H1507   1.083       .  S
C1504      H1508   1.083       .  S
C1509      C1510   1.410       .  A
C1509      C1514   1.404       .  A
C1509      H1519   1.083       .  S
C1510      C1515   1.493       .  S
C1510      C1511   1.404       .  A
C1511      C1512   1.398       .  A
C1511      H1516   1.083       .  S
C1512      C1513   1.408       .  A
C1512      H1517   1.083       .  S
C1513      C1514   1.406       .  A
C1514      H1518   1.083       .  S
C1515      C1520   1.407       .  A
C1515      C1524   1.409       .  A
C1520      C1521   1.403       .  A
C1520      H1525   1.083       .  S
C1521      C1522   1.404       .  A
C1521      H1526   1.084       .  S
C1522      C1523   1.400       .  A
C1523      C1524   1.400       .  A
C1523      H1527   1.083       .  S
C1524      H1528   1.083       .  S
C1529      C1530   1.416       .  A
C1529      C1534   1.413       .  A
C1529      H1539   1.082       .  S
C1530      C1535   1.503       .  S
C1530      C1531   1.404       .  A
C1531      C1532   1.394       .  A
C1531      H1536   1.082       .  S
C1532      C1533   1.407       .  A
C1532      H1537   1.084       .  S
C1533      C1534   1.405       .  A
C1534      H1538   1.083       .  S
C1535      C1540   1.407       .  A
C1535      C1544   1.413       .  A
C1540      C1541   1.403       .  A
C1540      H1545   1.082       .  S
C1541      C1542   1.410       .  A
C1541      H1546   1.083       .  S
C1542      C1543   1.404       .  A
C1543      C1544   1.404       .  A
C1543      H1547   1.082       .  S
C1544      H1548   1.082       .  S
C1549      C1550   1.407       .  A
C1549      C1554   1.403       .  A
C1549      H1559   1.083       .  S
C1550      C1555   1.507       .  S
C1550      C1551   1.414   1_545  A
C1551      C1552   1.409       .  A
C1551      H1556   1.082       .  S
C1552      C1553   1.403       .  A
C1552      H1557   1.083       .  S
C1553      C1554   1.408   1_565  A
C1554      H1558   1.084       .  S
C1555      C1560   1.408       .  A
C1555      C1564   1.412       .  A
C1560      C1561   1.406       .  A
C1560      H1565   1.083       .  S
C1561      C1562   1.410       .  A
C1561      H1566   1.083       .  S
C1562      C1563   1.407       .  A
C1563      C1564   1.407       .  A
C1563      H1567   1.083       .  S
C1564      H1568   1.082       .  S
C1569      C1570   1.406       .  A
C1569      C1574   1.400       .  A
C1569      H1579   1.083       .  S
C1570      C1575   1.487       .  S
C1570      C1571   1.405       .  A
C1571      C1572   1.400       .  A
C1571      H1576   1.083       .  S
C1572      C1573   1.407       .  A
C1572      H1577   1.083       .  S
C1573      C1574   1.406       .  A
C1574      H1578   1.083       .  S
C1575      C1580   1.407       .  A
C1575      C1584   1.404       .  A
C1580      C1581   1.402       .  A
C1580      H1585   1.083       .  S
C1581      C1582   1.405       .  A
C1581      H1586   1.083       .  S
C1582      C1583   1.407       .  A
C1583      C1584   1.398       .  A
C1583      H1587   1.083       .  S
C1584      H1588   1.083       .  S
C1589      C1590   1.400       .  A
C1589      C1594   1.393   1_545  A
C1589      H1599   1.083       .  S
C1590      C1595   1.484       .  S
C1590      C1591   1.410       .  A
C1591      C1592   1.406   1_545  A
C1591      H1596   1.083       .  S
C1592      C1593   1.404       .  A
C1592      H1597   1.083       .  S
C1593      C1594   1.409       .  A
C1594      H1598   1.083       .  S
C1595      C1600   1.407       .  A
C1595      C1604   1.405       .  A
C1600      C1601   1.397       .  A
C1600      H1605   1.083       .  S
C1601      C1602   1.401       .  A
C1601      H1606   1.083       .  S
C1602      C1603   1.405       .  A
C1603      C1604   1.403       .  A
C1603      H1607   1.084       .  S
C1604      H1608   1.083       .  S
C1609      C1610   1.412       .  A
C1609      C1614   1.403       .  A
C1609      H1619   1.083       .  S
C1610      C1615   1.489       .  S
C1610      C1611   1.401       .  A
C1611      C1612   1.396       .  A
C1611      H1616   1.083       .  S
C1612      C1613   1.410       .  A
C1612      H1617   1.083       .  S
C1613      C1614   1.403       .  A
C1614      H1618   1.083       .  S
C1615      C1620   1.412       .  A
C1615      C1624   1.399       .  A
C1620      C1621   1.410       .  A
C1620      H1625   1.083       .  S
C1621      C1622   1.406       .  A
C1621      H1626   1.082       .  S
C1622      C1623   1.410       .  A
C1623      C1624   1.390       .  A
C1623      H1627   1.083       .  S
C1624      H1628   1.083       .  S
C1629      C1630   1.406       .  A
C1629      C1634   1.401       .  A
C1629      H1639   1.083       .  S
C1630      C1635   1.499       .  S
C1630      C1631   1.410       .  A
C1631      C1632   1.408       .  A
C1631      H1636   1.083       .  S
C1632      C1633   1.406       .  A
C1632      H1637   1.084       .  S
C1633      C1634   1.406       .  A
C1634      H1638   1.083       .  S
C1635      C1640   1.406       .  A
C1635      C1644   1.409       .  A
C1640      C1641   1.406       .  A
C1640      H1645   1.083       .  S
C1641      C1642   1.410       .  A
C1641      H1646   1.083   1_545  S
C1642      C1643   1.407       .  A
C1643      C1644   1.403       .  A
C1643      H1647   1.083       .  S
C1644      H1648   1.083       .  S
C1649      C1650   1.405       .  A
C1649      C1654   1.405       .  A
C1649      H1659   1.083       .  S
C1650      C1655   1.498   1_545  S
C1650      C1651   1.409       .  A
C1651      C1652   1.406       .  A
C1651      H1656   1.083       .  S
C1652      C1653   1.406       .  A
C1652      H1657   1.083       .  S
C1653      C1654   1.412       .  A
C1654      H1658   1.083       .  S
C1655      C1660   1.406       .  A
C1655      C1664   1.410   1_565  A
C1660      C1661   1.403       .  A
C1660      H1665   1.083       .  S
C1661      C1662   1.405       .  A
C1661      H1666   1.083       .  S
C1662      C1663   1.404       .  A
C1663      C1664   1.407   1_565  A
C1663      H1667   1.084   1_565  S
C1664      H1668   1.083       .  S
C1669      C1670   1.407       .  A
C1669      C1674   1.397       .  A
C1669      H1679   1.082       .  S
C1670      C1675   1.491       .  S
C1670      C1671   1.409       .  A
C1671      C1672   1.399       .  A
C1671      H1676   1.082       .  S
C1672      C1673   1.404       .  A
C1672      H1677   1.083       .  S
C1673      C1674   1.405       .  A
C1674      H1678   1.083       .  S
C1675      C1680   1.410       .  A
C1675      C1684   1.405       .  A
C1680      C1681   1.401       .  A
C1680      H1685   1.082       .  S
C1681      C1682   1.402       .  A
C1681      H1686   1.083       .  S
C1682      C1683   1.406       .  A
C1683      C1684   1.396       .  A
C1683      H1687   1.083       .  S
C1684      H1688   1.082       .  S
C1689      C1690   1.401       .  A
C1689      C1694   1.390       .  A
C1689      H1699   1.083       .  S
C1690      C1695   1.492       .  S
C1690      C1691   1.412       .  A
C1691      C1692   1.410       .  A
C1691      H1696   1.083       .  S
C1692      C1693   1.406       .  A
C1692      H1697   1.083       .  S
C1693      C1694   1.407       .  A
C1694      H1698   1.083       .  S
C1695      C1700   1.403       .  A
C1695      C1704   1.411       .  A
C1700      C1701   1.400       .  A
C1700      H1705   1.083       .  S
C1701      C1702   1.411       .  A
C1701      H1706   1.083       .  S
C1702      C1703   1.404       .  A
C1703      C1704   1.403       .  A
C1703      H1707   1.083       .  S
C1704      H1708   1.083       .  S
C1709      C1710   1.403       .  A
C1709      C1714   1.392       .  A
C1709      H1719   1.083       .  S
C1710      C1715   1.461       .  S
C1710      C1711   1.400       .  A
C1711      C1712   1.387       .  A
C1711      H1716   1.083       .  S
C1712      C1713   1.401       .  A
C1712      H1717   1.084       .  S
C1713      C1714   1.400       .  A
C1714      H1718   1.083       .  S
C1715      C1720   1.397       .  A
C1715      C1724   1.405       .  A
C1720      C1721   1.388       .  A
C1720      H1725   1.083       .  S
C1721      C1722   1.405       .  A
C1721      H1726   1.084       .  S
C1722      C1723   1.400       .  A
C1723      C1724   1.393       .  A
C1723      H1727   1.083       .  S
C1724      H1728   1.084       .  S
C1729      C1730   1.409       .  A
C1729      C1734   1.401       .  A
C1729      H1739   1.083       .  S
C1730      C1735   1.487       .  S
C1730      C1731   1.404       .  A
C1731      C1732   1.395       .  A
C1731      H1736   1.083       .  S
C1732      C1733   1.405       .  A
C1732      H1737   1.084       .  S
C1733      C1734   1.402       .  A
C1734      H1738   1.083       .  S
C1735      C1740   1.403       .  A
C1735      C1744   1.409       .  A
C1740      C1741   1.397       .  A
C1740      H1745   1.083       .  S
C1741      C1742   1.407       .  A
C1741      H1746   1.083       .  S
C1742      C1743   1.402       .  A
C1743      C1744   1.398       .  A
C1743      H1747   1.083       .  S
C1744      H1748   1.083       .  S
C1749      C1750   1.407       .  A
C1749      C1754   1.400       .  A
C1749      H1759   1.082       .  S
C1750      C1755   1.505       .  S
C1750      C1751   1.414       .  A
C1751      C1752   1.408       .  A
C1751      H1756   1.082       .  S
C1752      C1753   1.403       .  A
C1752      H1757   1.083       .  S
C1753      C1754   1.407       .  A
C1754      H1758   1.084       .  S
C1755      C1760   1.413       .  A
C1755      C1764   1.408       .  A
C1760      C1761   1.408       .  A
C1760      H1765   1.082       .  S
C1761      C1762   1.407       .  A
C1761      H1766   1.083       .  S
C1762      C1763   1.408       .  A
C1763      C1764   1.400       .  A
C1763      H1767   1.083       .  S
C1764      H1768   1.082       .  S
C1769      C1770   1.410       .  A
C1769      C1774   1.409       .  A
C1769      H1779   1.083       .  S
C1770      C1775   1.497       .  S
C1770      C1771   1.405       .  A
C1771      C1772   1.399       .  A
C1771      H1776   1.083       .  S
C1772      C1773   1.409       .  A
C1772      H1777   1.083       .  S
C1773      C1774   1.408       .  A
C1774      H1778   1.083       .  S
C1775      C1780   1.409   1_455  A
C1775      C1784   1.406       .  A
C1780      C1781   1.409       .  A
C1780      H1785   1.083       .  S
C1781      C1782   1.407       .  A
C1781      H1786   1.083       .  S
C1782      C1783   1.406   1_655  A
C1783      C1784   1.399       .  A
C1783      H1787   1.084       .  S
C1784      H1788   1.083       .  S
C1789      C1790   1.406       .  A
C1789      C1794   1.402       .  A
C1789      H1799   1.083       .  S
C1790      C1795   1.482       .  S
C1790      C1791   1.402       .  A
C1791      C1792   1.393       .  A
C1791      H1796   1.083       .  S
C1792      C1793   1.406       .  A
C1792      H1797   1.083       .  S
C1793      C1794   1.406       .  A
C1794      H1798   1.083       .  S
C1795      C1800   1.405       .  A
C1795      C1804   1.404       .  A
C1800      C1801   1.396       .  A
C1800      H1805   1.083       .  S
C1801      C1802   1.405       .  A
C1801      H1806   1.083       .  S
C1802      C1803   1.408       .  A
C1803      C1804   1.400       .  A
C1803      H1807   1.083       .  S
C1804      H1808   1.083       .  S
C1809      C1810   1.406       .  A
C1809      C1814   1.400       .  A
C1809      H1819   1.083       .  S
C1810      C1815   1.486       .  S
C1810      C1811   1.408       .  A
C1811      C1812   1.398       .  A
C1811      H1816   1.083       .  S
C1812      C1813   1.401       .  A
C1812      H1817   1.084       .  S
C1813      C1814   1.402       .  A
C1814      H1818   1.084       .  S
C1815      C1820   1.409       .  A
C1815      C1824   1.402       .  A
C1820      C1821   1.402       .  A
C1820      H1825   1.083       .  S
C1821      C1822   1.405       .  A
C1821      H1826   1.083       .  S
C1822      C1823   1.408       .  A
C1823      C1824   1.395       .  A
C1823      H1827   1.083       .  S
C1824      H1828   1.083       .  S
C1829      C1830   1.402       .  A
C1829      C1834   1.394       .  A
C1829      H1839   1.084       .  S
C1830      C1835   1.487       .  S
C1830      C1831   1.410       .  A
C1831      C1832   1.403       .  A
C1831      H1836   1.082       .  S
C1832      C1833   1.402       .  A
C1832      H1837   1.084       .  S
C1833      C1834   1.406       .  A
C1834      H1838   1.083       .  S
C1835      C1840   1.411       .  A
C1835      C1844   1.401       .  A
C1840      C1841   1.401       .  A
C1840      H1845   1.083       .  S
C1841      C1842   1.402       .  A
C1841      H1846   1.083       .  S
C1842      C1843   1.410       .  A
C1843      C1844   1.397       .  A
C1843      H1847   1.083       .  S
C1844      H1848   1.083       .  S
C1849      C1850   1.411       .  A
C1849      C1854   1.402       .  A
C1849      H1859   1.082       .  S
C1850      C1855   1.504       .  S
C1850      C1851   1.409       .  A
C1851      C1852   1.404       .  A
C1851      H1856   1.082       .  S
C1852      C1853   1.404       .  A
C1852      H1857   1.083       .  S
C1853      C1854   1.403       .  A
C1854      H1858   1.084       .  S
C1855      C1860   1.414       .  A
C1855      C1864   1.407       .  A
C1860      C1861   1.407       .  A
C1860      H1865   1.082       .  S
C1861      C1862   1.404       .  A
C1861      H1866   1.083       .  S
C1862      C1863   1.406       .  A
C1863      C1864   1.400       .  A
C1863      H1867   1.083       .  S
C1864      H1868   1.082       .  S
C1869      C1870   1.407       .  A
C1869      C1874   1.403       .  A
C1869      H1879   1.083       .  S
C1870      C1875   1.502       .  S
C1870      C1871   1.410       .  A
C1871      C1872   1.408   1_455  A
C1871      H1876   1.083       .  S
C1872      C1873   1.406       .  A
C1872      H1877   1.083       .  S
C1873      C1874   1.406   1_655  A
C1874      H1878   1.083       .  S
C1875      C1880   1.406       .  A
C1875      C1884   1.410       .  A
C1880      C1881   1.407       .  A
C1880      H1885   1.083       .  S
C1881      C1882   1.412       .  A
C1881      H1886   1.083       .  S
C1882      C1883   1.407       .  A
C1883      C1884   1.406       .  A
C1883      H1887   1.083       .  S
C1884      H1888   1.083       .  S
C1889      C1890   1.405       .  A
C1889      C1894   1.393       .  A
C1889      H1899   1.082       .  S
C1890      C1895   1.493       .  S
C1890      C1891   1.412       .  A
C1891      C1892   1.404       .  A
C1891      H1896   1.082       .  S
C1892      C1893   1.403       .  A
C1892      H1897   1.083       .  S
C1893      C1894   1.403       .  A
C1894      H1898   1.083       .  S
C1895      C1900   1.410       .  A
C1895      C1904   1.406       .  A
C1900      C1901   1.398       .  A
C1900      H1905   1.082       .  S
C1901      C1902   1.402       .  A
C1901      H1906   1.083       .  S
C1902      C1903   1.407       .  A
C1903      C1904   1.399       .  A
C1903      H1907   1.083       .  S
C1904      H1908   1.082       .  S
C1909      C1910   1.401       .  A
C1909      C1914   1.392       .  A
C1909      H1919   1.083       .  S
C1910      C1915   1.489       .  S
C1910      C1911   1.412       .  A
C1911      C1912   1.407       .  A
C1911      H1916   1.083       .  S
C1912      C1913   1.405   1_455  A
C1912      H1917   1.083       .  S
C1913      C1914   1.408   1_655  A
C1914      H1918   1.083   1_455  S
C1915      C1920   1.410       .  A
C1915      C1924   1.405       .  A
C1920      C1921   1.397       .  A
C1920      H1925   1.082       .  S
C1921      C1922   1.398       .  A
C1921      H1926   1.084       .  S
C1922      C1923   1.405       .  A
C1923      C1924   1.400       .  A
C1923      H1927   1.084       .  S
C1924      H1928   1.083       .  S
C1929      C1930   1.405       .  A
C1929      C1934   1.392       .  A
C1929      H1939   1.084       .  S
C1930      C1935   1.461       .  S
C1930      C1931   1.397       .  A
C1931      C1932   1.389       .  A
C1931      H1936   1.083       .  S
C1932      C1933   1.405       .  A
C1932      H1937   1.084       .  S
C1933      C1934   1.399       .  A
C1934      H1938   1.083       .  S
C1935      C1940   1.398       .  A
C1935      C1944   1.403       .  A
C1940      C1941   1.390       .  A
C1940      H1945   1.083       .  S
C1941      C1942   1.404       .  A
C1941      H1946   1.084       .  S
C1942      C1943   1.399       .  A
C1943      C1944   1.392       .  A
C1943      H1947   1.083       .  S
C1944      H1948   1.084       .  S
C1949      C1950   1.403       .  A
C1949      C1954   1.400       .  A
C1949      H1959   1.083       .  S
C1950      C1955   1.493       .  S
C1950      C1951   1.411       .  A
C1951      C1952   1.401       .  A
C1951      H1956   1.082       .  S
C1952      C1953   1.403       .  A
C1952      H1957   1.083       .  S
C1953      C1954   1.410       .  A
C1954      H1958   1.083       .  S
C1955      C1960   1.412       .  A
C1955      C1964   1.402       .  A
C1960      C1961   1.407       .  A
C1960      H1965   1.082       .  S
C1961      C1962   1.403       .  A
C1961      H1966   1.083       .  S
C1962      C1963   1.408       .  A
C1963      C1964   1.395       .  A
C1963      H1967   1.084       .  S
C1964      H1968   1.084       .  S
