geometry optimzed in LAMMPS
_audit_creation_date              2020-11-30 
_audit_creation_method            'lammps2cif' 
_symmetry_space_group_name_H-M    'P1' 
_symmetry_Int_Tables_number       1 
_symmetry_cell_setting            triclinic 
loop_ 
_symmetry_equiv_pos_as_xyz 
  x,y,z 
_cell_length_a                    46.23329002 
_cell_length_b                    45.41494908805805 
_cell_length_c                    43.3335491632589 
_cell_angle_alpha                 90.2178321065173 
_cell_angle_beta                  90.61295957608374 
_cell_angle_gamma                 89.46261815617723 
loop_ 
_atom_site_label 
_atom_site_type_symbol 
_atom_site_fract_x 
_atom_site_fract_y 
_atom_site_fract_z 
_atom_site_charge 
O1          O  0.03225310  0.95986502  0.20626271    -0.73700
O2          O  0.97692363  0.02290359  0.20279729    -0.73700
O3          O  0.03511950  0.01902067  0.20210055    -0.73800
O4          O  0.97371713  0.96351249  0.20651632    -0.73800
O5          O  0.97388867  0.96617833  0.25785150    -0.73800
O6          O  0.03593506  0.02158263  0.25342947    -0.73800
O7          O  0.97785751  0.02617077  0.25414894    -0.73700
O8          O  0.03254785  0.96253686  0.25756151    -0.73800
Ni9        Ni  0.00439519  0.99114572  0.20262227     1.25400
Ni10       Ni  0.00501957  0.99419235  0.25759994     1.25400
C11         C  0.04199068  0.95114469  0.23251857     0.88500
C12         C  0.96875652  0.03536112  0.22785853     0.88400
C13         C  0.04575513  0.02945697  0.22715773     0.88400
C14         C  0.96360413  0.95557173  0.23258945     0.88600
O15         O  0.20347019  0.29540019  0.26710440    -0.80200
O16         O  0.24327905  0.20440345  0.16721927    -0.64900
O17         O  0.23167496  0.24584209  0.24234478    -1.11500
C18         C  0.29935959  0.31264474  0.20004723     1.06700
O19         O  0.29055332  0.21087962  0.16755838    -0.78100
O20         O  0.31704751  0.24080448  0.21286114    -0.65700
Ni21       Ni  0.19307196  0.25623178  0.25409503     1.34900
C22         C  0.31055312  0.24400005  0.24104951     0.85400
O23         O  0.21366085  0.19259363  0.21860695    -0.78600
O24         O  0.17900799  0.21759890  0.24375657    -0.88900
C25         C  0.26794945  0.19997915  0.15558643     0.85000
O26         O  0.18027779  0.27152015  0.21506619    -0.67100
O27         O  0.30646437  0.29228458  0.18128244    -0.86400
C28         C  0.18469898  0.26027638  0.18868265     0.85900
C29         C  0.18919216  0.19393853  0.23198721     1.07400
H30         H  0.24826972  0.26944333  0.17799155     0.39200
O31         O  0.25911393  0.25804470  0.19297614    -1.09000
O32         O  0.28779041  0.25726877  0.24977716    -0.65700
Ni33       Ni  0.25595022  0.27774945  0.23166813     1.26300
O34         O  0.20401307  0.24082122  0.18409844    -0.65900
O35         O  0.28032733  0.30984670  0.22077171    -0.78200
C36         C  0.22666278  0.30354391  0.28053140     0.85200
O37         O  0.25123348  0.29548368  0.27096990    -0.65400
Ni38       Ni  0.29684397  0.25172662  0.17578893     1.27400
Ni39       Ni  0.23680739  0.22461076  0.20509531     1.26100
H40         H  0.24032248  0.23463116  0.25907753     0.39800
O41         O  0.70394047  0.19388752  0.24813867    -0.80200
O42         O  0.79678435  0.24156945  0.15565156    -0.64900
O43         O  0.75339284  0.22613475  0.22784965    -1.11500
C44         C  0.69269426  0.30212996  0.19148395     1.06700
O45         O  0.79402092  0.29020261  0.15969709    -0.78100
O46         O  0.76870466  0.30861492  0.21259912    -0.65700
Ni47       Ni  0.74464775  0.18638941  0.23937508     1.34900
C48         C  0.75778611  0.30252155  0.23851926     0.85400
O49         O  0.80676559  0.20751622  0.20411353    -0.78600
O50         O  0.78442989  0.17472999  0.23382350    -0.88900
C51         C  0.80526332  0.26702207  0.14822510     0.85000
O52         O  0.73502721  0.17096922  0.19917467    -0.67100
O53         O  0.71628326  0.31288105  0.18169465    -0.86400
C54         C  0.74434047  0.17761938  0.17257872     0.85900
C55         C  0.80686455  0.18418005  0.22018472     1.07400
H56         H  0.73463259  0.25101977  0.16240214     0.39200
O57         O  0.74472460  0.25873626  0.18031837    -1.09000
O58         O  0.73850594  0.28277284  0.24127736    -0.65700
Ni59       Ni  0.72215795  0.25147369  0.21600110     1.26300
O60         O  0.75895455  0.20090666  0.16784609    -0.65900
O61         O  0.69105039  0.27648475  0.20282037    -0.78200
C62         C  0.69125730  0.21712360  0.25796926     0.85200
O63         O  0.70025987  0.24252266  0.25135350    -0.65400
Ni64       Ni  0.75474518  0.29900704  0.17206440     1.27400
Ni65       Ni  0.77563116  0.23284229  0.19173160     1.26100
H66         H  0.76368462  0.23474686  0.24511610     0.39800
O67         O  0.80476801  0.69587453  0.17689110    -0.80200
O68         O  0.70307110  0.73792319  0.25322499    -0.64900
O69         O  0.75205227  0.72482724  0.18520474    -1.11500
C70         C  0.80004798  0.80887720  0.22302948     1.06700
O71         O  0.69782830  0.78462121  0.23960713    -0.78100
O72         O  0.72891238  0.80608450  0.19102713    -0.65700
Ni73       Ni  0.76436515  0.68584058  0.17477383     1.34900
C74         C  0.74550639  0.80156826  0.16822911     0.85400
O75         O  0.70155048  0.69863037  0.20771845    -0.78600
O76         O  0.72487475  0.67244008  0.17163941    -0.88900
C77         C  0.68954657  0.76218195  0.25479209     0.85000
O78         O  0.76748249  0.66978518  0.21528485    -0.67100
O79         O  0.77441891  0.81730609  0.22997132    -0.86400
C80         C  0.76125061  0.67890842  0.24215898     0.85900
C81         C  0.70259074  0.67767136  0.18803477     1.07400
H82         H  0.76241884  0.75619985  0.25019728     0.39200
O83         O  0.75300718  0.76077206  0.23049199    -1.09000
O84         O  0.76537906  0.78205363  0.16906130    -0.65700
Ni85       Ni  0.77980802  0.75351811  0.19872037     1.26300
O86         O  0.74827789  0.70336218  0.24684226    -0.65900
O87         O  0.80595104  0.78279957  0.21366622    -0.78200
C88         C  0.81636121  0.71788993  0.16405034     0.85200
O89         O  0.80646099  0.74365968  0.16762532    -0.65400
Ni90       Ni  0.73677357  0.79922928  0.23396175     1.27400
Ni91       Ni  0.72730571  0.72981773  0.21946528     1.26100
H92         H  0.74200052  0.73236812  0.16747289     0.39800
O93         O  0.29389903  0.80267677  0.17834801    -0.80200
O94         O  0.26815343  0.69082290  0.25029164    -0.64900
O95         O  0.26976242  0.74700274  0.18621796    -1.11500
C96         C  0.19156426  0.79103736  0.23346413     1.06700
O97         O  0.22029767  0.68918656  0.25405308    -0.78100
O98         O  0.19887752  0.71587907  0.20310849    -0.65700
Ni99       Ni  0.30615370  0.76215389  0.17307277     1.34900
C100        C  0.19845975  0.73264834  0.17975657     0.85400
O101        O  0.29647694  0.69430869  0.19851959    -0.78600
O102        O  0.32087912  0.72275268  0.16580184    -0.88900
C103        C  0.24540052  0.67826265  0.25884989     0.85000
O104        O  0.32615239  0.76435866  0.21214989    -0.67100
O105        O  0.18410578  0.76446422  0.23790211    -0.86400
C106        C  0.32039730  0.75372401  0.23841124     0.85900
C107        C  0.31541150  0.69782936  0.17789746     1.07400
H108        H  0.24917500  0.75260816  0.25596727     0.39200
O109        O  0.24166520  0.74430820  0.23697094    -1.09000
O110        O  0.21212670  0.75689649  0.17960130    -0.65700
Ni111      Ni  0.24306033  0.77302784  0.20523868     1.26300
O112        O  0.29897539  0.73706769  0.24282866    -0.65900
O113        O  0.21679242  0.79810766  0.22546338    -0.78200
C114        C  0.27011144  0.81402208  0.16889682     0.85200
O115        O  0.24633671  0.80159502  0.17393562    -0.65400
Ni116      Ni  0.20467042  0.72770093  0.24479410     1.27400
Ni117      Ni  0.26941401  0.71893608  0.21824443     1.26100
H118        H  0.26080702  0.73813553  0.16818167     0.39800
O119        O  0.25984312  0.02482988  0.92421023    -0.73700
O120        O  0.25515561  0.98435540  0.00072249    -0.73700
O121        O  0.26255253  0.04068790  0.98393397    -0.73800
O122        O  0.25260656  0.96837193  0.94109367    -0.73800
O123        O  0.30049612  0.96157218  0.94247224    -0.73800
O124        O  0.31050068  0.03463497  0.98515293    -0.73800
O125        O  0.30315954  0.97827286  0.00217680    -0.73700
O126        O  0.30775527  0.01851623  0.92508124    -0.73800
Ni127      Ni  0.25587008  0.00485402  0.96248783     1.25400
Ni128      Ni  0.30724981  0.99798587  0.96359353     1.25400
C129        C  0.28466552  0.02883961  0.91232692     0.88500
C130        C  0.27815674  0.97431502  0.01373112     0.88400
C131        C  0.28780426  0.04954632  0.99178551     0.88400
C132        C  0.27502173  0.95275238  0.93530910     0.88600
O133        O  0.98317890  0.30046526  0.99326859    -0.73700
O134        O  0.04287891  0.30019378  0.93245545    -0.73700
O135        O  0.98439361  0.30056639  0.93067973    -0.73800
O136        O  0.04203875  0.30110838  0.99479263    -0.73800
O137        O  0.04284374  0.25204115  0.99428241    -0.73800
O138        O  0.98405478  0.25150733  0.93148739    -0.73800
O139        O  0.04261758  0.25116522  0.93200678    -0.73700
O140        O  0.98454578  0.25137608  0.99408669    -0.73800
Ni141      Ni  0.01309513  0.30235740  0.96281542     1.25400
Ni142      Ni  0.01353940  0.24979933  0.96295224     1.25400
C143        C  0.97397598  0.27584499  0.00361887     0.88500
C144        C  0.05266405  0.27552132  0.92225620     0.88400
C145        C  0.97468223  0.27604180  0.92050458     0.88400
C146        C  0.05199151  0.27662029  0.00508090     0.88600
O147        O  0.71275814  0.02090248  0.91898893    -0.73700
O148        O  0.71243492  0.96088020  0.98208943    -0.73700
O149        O  0.71193717  0.02094137  0.98219840    -0.73800
O150        O  0.71279176  0.96030544  0.91908383    -0.73800
O151        O  0.76088674  0.96088719  0.91986671    -0.73800
O152        O  0.76000046  0.02071529  0.98302360    -0.73800
O153        O  0.76050824  0.96099229  0.98246216    -0.73700
O154        O  0.76084403  0.02090609  0.92002597    -0.73800
Ni155      Ni  0.71074490  0.99079673  0.95045790     1.25400
Ni156      Ni  0.76218107  0.99088293  0.95132501     1.25400
C157        C  0.73686998  0.03107799  0.90922337     0.88500
C158        C  0.73663947  0.95108619  0.99286751     0.88400
C159        C  0.73586783  0.03053571  0.99350912     0.88400
C160        C  0.73710507  0.95029308  0.90928573     0.88600
O161        O  0.04366322  0.66986870  0.00060071    -0.73700
O162        O  0.98419627  0.66815617  0.93723783    -0.73700
O163        O  0.04284823  0.66841950  0.93803360    -0.73800
O164        O  0.98468383  0.66960489  0.00043156    -0.73800
O165        O  0.98390689  0.71863901  0.99824196    -0.73800
O166        O  0.04286464  0.71752050  0.93779212    -0.73800
O167        O  0.98462417  0.71717481  0.93618819    -0.73700
O168        O  0.04201905  0.71895418  0.99977540    -0.73800
Ni169      Ni  0.01386173  0.66716037  0.96915574     1.25400
Ni170      Ni  0.01333498  0.71971846  0.96797263     1.25400
C171        C  0.05243453  0.69490202  0.01064422     0.88500
C172        C  0.97484106  0.69265230  0.92604253     0.88400
C173        C  0.05245328  0.69283897  0.92776715     0.88400
C174        C  0.97452477  0.69453829  0.00937646     0.88600
O175        O  0.29886956  0.77604898  0.78171016    -0.80200
O176        O  0.26560392  0.72208875  0.65379536    -0.64900
O177        O  0.27542127  0.77469620  0.72158134    -1.11500
C178        C  0.19559990  0.72071474  0.76048648     1.06700
O179        O  0.21933674  0.73316317  0.65249653    -0.78100
O180        O  0.18971602  0.76268796  0.69648054    -0.65700
Ni181      Ni  0.31300250  0.77971797  0.74013428     1.34900
C182        C  0.19593884  0.78531748  0.71242988     0.85400
O183        O  0.30069229  0.76715445  0.66449872    -0.78600
O184        O  0.33093750  0.78499287  0.70062122    -0.88900
C185        C  0.24119414  0.72070819  0.64041063     0.85000
O186        O  0.32538141  0.73929914  0.74045829    -0.67100
O187        O  0.19031580  0.71369252  0.73243164    -0.86400
C188        C  0.31969686  0.71818450  0.72209047     0.85900
C189        C  0.32426966  0.77934395  0.67261248     1.07400
H190        H  0.24976939  0.71154636  0.71887653     0.39200
O191        O  0.24276173  0.73051126  0.71189747    -1.09000
O192        O  0.21776903  0.78594429  0.73062920    -0.65700
Ni193      Ni  0.24577677  0.75697224  0.74559847     1.26300
O194        O  0.29972017  0.71969292  0.70173463    -0.65900
O195        O  0.21622546  0.73766273  0.76883686    -0.78200
C196        C  0.27555951  0.78681273  0.79251603     0.85200
O197        O  0.25150587  0.78345151  0.77875220    -0.65400
Ni198      Ni  0.20597206  0.72395868  0.69318779     1.27400
Ni199      Ni  0.27169750  0.74841264  0.68757835     1.26100
H200        H  0.26890065  0.79391435  0.71486867     0.39800
O201        O  0.98393516  0.96260238  0.73872734    -0.73700
O202        O  0.03724724  0.02655903  0.73481991    -0.73700
O203        O  0.97883799  0.02250851  0.73784507    -0.73800
O204        O  0.04212355  0.96632856  0.73498563    -0.73800
O205        O  0.03906518  0.96511279  0.68376109    -0.73800
O206        O  0.97676604  0.02149900  0.68652345    -0.73800
O207        O  0.03507525  0.02488691  0.68341695    -0.73700
O208        O  0.98116031  0.96215265  0.68740717    -0.73800
Ni209      Ni  0.01071855  0.99458430  0.73846269     1.25400
Ni210      Ni  0.00794456  0.99347218  0.68351473     1.25400
C211        C  0.97388801  0.95168501  0.71358129     0.88500
C212        C  0.04482117  0.03630402  0.70845966     0.88400
C213        C  0.96718125  0.03113598  0.71236685     0.88400
C214        C  0.05043204  0.95564379  0.70895040     0.88600
O215        O  0.29721906  0.20171581  0.74511210    -0.80200
O216        O  0.24702930  0.30642553  0.66656728    -0.64900
O217        O  0.26928709  0.25581562  0.73195241    -1.11500
C218        C  0.18731033  0.20162592  0.69782982     1.06700
O219        O  0.20132256  0.30595805  0.68064574    -0.78100
O220        O  0.18084896  0.27078525  0.72397554    -0.65700
Ni221      Ni  0.30811969  0.24187028  0.73606053     1.34900
C222        C  0.19186083  0.26298051  0.74954777     0.85400
O223        O  0.28744376  0.30998643  0.71033477    -0.78600
O224        O  0.32289712  0.28093293  0.72922717    -0.88900
C225        C  0.22200429  0.31799185  0.66669163     0.85000
O226        O  0.31413656  0.23141657  0.69376775    -0.67100
O227        O  0.17939137  0.22491912  0.68357844    -0.86400
C228        C  0.30688982  0.24525229  0.66943341     0.85900
C229        C  0.31298665  0.30607987  0.72082637     1.07400
H230        H  0.23744847  0.24176200  0.67027068     0.39200
O231        O  0.23155551  0.25210486  0.68868925    -1.09000
O232        O  0.21493103  0.24762286  0.75141846    -0.65700
Ni233      Ni  0.24016129  0.22762974  0.72308830     1.26300
O234        O  0.28678987  0.26478195  0.66919825    -0.65900
O235        O  0.21062412  0.19963556  0.71362472    -0.78200
C236        C  0.27564558  0.19257530  0.76033811     0.85200
O237        O  0.25087302  0.20420605  0.75728539    -0.65400
Ni238      Ni  0.19229015  0.26480297  0.68232208     1.27400
Ni239      Ni  0.25954891  0.28124431  0.69874428     1.26100
H240        H  0.26478314  0.26591273  0.75076838     0.39800
O241        O  0.80216723  0.29254923  0.75084278    -0.80200
O242        O  0.70328467  0.24925853  0.66059777    -0.64900
O243        O  0.75145143  0.26335461  0.73023026    -1.11500
C244        C  0.80552914  0.18194936  0.69624692     1.06700
O245        O  0.70574814  0.20024225  0.66053996    -0.78100
O246        O  0.72909659  0.18349451  0.71690831    -0.65700
Ni247      Ni  0.76282581  0.30323707  0.73915086     1.34900
C248        C  0.74360157  0.18710690  0.74173893     0.85400
O249        O  0.69732875  0.28476260  0.70843530    -0.78600
O250        O  0.72470230  0.31942273  0.73023502    -0.90500
C251        C  0.69430772  0.22441392  0.65161790     0.85000
O252        O  0.77512966  0.31305782  0.69851729    -0.67100
O253        O  0.78061555  0.17241332  0.68866009    -0.86400
C254        C  0.76311815  0.30735188  0.67269066     0.85900
C255        C  0.70044489  0.31049542  0.71964992     1.07400
H256        H  0.76534450  0.23597925  0.66434995     0.39200
O257        O  0.75589385  0.22924564  0.68285534    -1.09000
O258        O  0.76451556  0.20532677  0.74329913    -0.65700
Ni259      Ni  0.78086040  0.23583606  0.71733879     1.26300
O260        O  0.74417078  0.28722474  0.66943345    -0.65900
O261        O  0.80995614  0.20874546  0.70313305    -0.78200
C262        C  0.81429663  0.26874834  0.75999766     0.85200
O263        O  0.80524808  0.24373644  0.75171797    -0.65400
Ni264      Ni  0.74373685  0.18918431  0.67610625     1.27400
Ni265      Ni  0.72682653  0.25721608  0.69525590     1.26100
H266        H  0.74190581  0.25589939  0.74820199     0.39800
O267        O  0.72261043  0.78883436  0.65358009    -0.80200
O268        O  0.81376976  0.73657577  0.75121957    -0.64900
O269        O  0.76935249  0.75624501  0.67951157    -1.11500
C270        C  0.70950278  0.67935959  0.70857801     1.06700
O271        O  0.80748323  0.68802148  0.74998917    -0.78100
O272        O  0.78746474  0.67620639  0.69186009    -0.65700
Ni273      Ni  0.75927439  0.79715945  0.67368068     1.34900
C274        C  0.77493857  0.68103133  0.66611534     0.85400
O275        O  0.82220224  0.77273568  0.70468216    -0.78600
O276        O  0.79517582  0.81155386  0.69115328    -0.88900
C277        C  0.82027950  0.71077265  0.76019321     0.85000
O278        O  0.74121597  0.80131433  0.71293085    -0.67100
O279        O  0.73337295  0.66680118  0.71560835    -0.86400
C280        C  0.75438933  0.79721212  0.73848540     0.85900
C281        C  0.81906413  0.80013212  0.70006354     1.07400
H282        H  0.75075659  0.72864257  0.74390427     0.39200
O283        O  0.76082910  0.72149856  0.72560212    -1.09000
O284        O  0.75432163  0.69978989  0.66350169    -0.65700
Ni285      Ni  0.73832312  0.73076465  0.68989192     1.26300
O286        O  0.77476900  0.77807826  0.74123660    -0.65900
O287        O  0.70759975  0.70640073  0.70200550    -0.78200
C288        C  0.70939420  0.76575661  0.64470526     0.85200
O289        O  0.71601312  0.74050790  0.65465417    -0.65400
Ni290      Ni  0.77021176  0.68049148  0.73137153     1.27400
Ni291      Ni  0.79172269  0.74714857  0.71560001     1.26100
H292        H  0.77929235  0.74911289  0.66148257     0.39800
O293        O  0.47297937  0.47763242  0.74979186    -0.73700
O294        O  0.53015843  0.53755141  0.74459338    -0.73700
O295        O  0.47133199  0.53715536  0.74730291    -0.73800
O296        O  0.53190426  0.47789691  0.74661920    -0.73800
O297        O  0.52851930  0.47544086  0.69538595    -0.73800
O298        O  0.46914227  0.53554598  0.69606530    -0.73800
O299        O  0.52797466  0.53532783  0.69334567    -0.73700
O300        O  0.46994633  0.47611019  0.69853517    -0.73800
Ni301      Ni  0.50171524  0.50764062  0.74888435     1.25400
Ni302      Ni  0.49883829  0.50556974  0.69402217     1.25400
C303        C  0.46173701  0.46715478  0.72503110     0.88500
C304        C  0.53875300  0.54624304  0.71821633     0.88400
C305        C  0.45990496  0.54593264  0.72176157     0.88400
C306        C  0.54015602  0.46677495  0.72083004     0.88600
O307        O  0.52547821  0.46183929  0.16301802    -0.73700
O308        O  0.47237442  0.52564133  0.15339770    -0.73700
O309        O  0.53035388  0.52145774  0.15939594    -0.73800
O310        O  0.46748157  0.46665774  0.15720618    -0.73800
O311        O  0.46351242  0.47149065  0.20822335    -0.73800
O312        O  0.52765769  0.52411154  0.21062491    -0.73800
O313        O  0.46967632  0.53033511  0.20453354    -0.73700
O314        O  0.52164532  0.46455145  0.21412450    -0.73800
Ni315      Ni  0.49919650  0.49374795  0.15646299     1.25400
Ni316      Ni  0.49558782  0.49769200  0.21122829     1.25400
C317        C  0.53191547  0.45212676  0.18994348     0.88500
C318        C  0.46202735  0.53834484  0.17729501     0.88400
C319        C  0.53898602  0.53230240  0.18526712     0.88400
C320        C  0.45462354  0.46076472  0.18245796     0.88600
O321        O  0.76149197  0.52081700  0.42612637    -0.73700
O322        O  0.76539569  0.45915377  0.48610003    -0.73700
O323        O  0.76680748  0.51887426  0.48823829    -0.73800
O324        O  0.76014905  0.46102888  0.42375314    -0.73800
O325        O  0.80812257  0.45898885  0.42081449    -0.73800
O326        O  0.81477102  0.51811148  0.48465329    -0.73800
O327        O  0.81340412  0.45770486  0.48365762    -0.73700
O328        O  0.80939521  0.51909624  0.42210125    -0.73800
Ni329      Ni  0.76184608  0.49001869  0.45622160     1.25400
Ni330      Ni  0.81317067  0.48841997  0.45264185     1.25400
C331        C  0.78479549  0.53026381  0.41412914     0.88500
C332        C  0.78972196  0.44804261  0.49488750     0.88400
C333        C  0.79164543  0.52838125  0.49695212     0.88400
C334        C  0.78310341  0.45014488  0.41172318     0.88600
O335        O  0.53341253  0.75783835  0.48235570    -0.73700
O336        O  0.46799504  0.75842032  0.42802844    -0.73700
O337        O  0.52569653  0.75872363  0.42075075    -0.73800
O338        O  0.47574987  0.75734864  0.48997467    -0.73800
O339        O  0.47465465  0.80638767  0.48962959    -0.73800
O340        O  0.52624868  0.80785675  0.42186454    -0.73800
O341        O  0.46768969  0.80739153  0.42726088    -0.73700
O342        O  0.53256062  0.80690177  0.48392377    -0.73800
Ni343      Ni  0.50071001  0.75637149  0.45523134     1.25400
Ni344      Ni  0.50020639  0.80893327  0.45571329     1.25400
C345        C  0.54375790  0.78220437  0.49224381     0.88500
C346        C  0.45715842  0.78274597  0.41814481     0.88400
C347        C  0.53441080  0.78331556  0.41014795     0.88400
C348        C  0.46704629  0.78183101  0.50133918     0.88600
O349        O  0.19575225  0.53104941  0.42954008    -0.73700
O350        O  0.18291007  0.48896908  0.50375907    -0.73700
O351        O  0.18609375  0.54632454  0.48874813    -0.73800
O352        O  0.19269806  0.47359160  0.44449816    -0.73800
O353        O  0.24016368  0.47182606  0.45427787    -0.73800
O354        O  0.23397585  0.54545616  0.49637001    -0.73800
O355        O  0.23043508  0.48879510  0.51361521    -0.73700
O356        O  0.24346939  0.52847913  0.43788538    -0.73800
Ni357      Ni  0.18763368  0.50996908  0.46635442     1.25400
Ni358      Ni  0.23870561  0.50855276  0.47602457     1.25400
C359        C  0.22168649  0.53644337  0.42140672     0.88500
C360        C  0.20456407  0.48220107  0.52095531     0.88400
C361        C  0.20929150  0.55814531  0.49900682     0.88400
C362        C  0.21750242  0.46111941  0.44145666     0.88600
O363        O  0.46301008  0.25294069  0.48598268    -0.73700
O364        O  0.52130012  0.25050773  0.42333290    -0.73700
O365        O  0.46260523  0.25132855  0.42340564    -0.73800
O366        O  0.52177820  0.25170205  0.48589049    -0.73800
O367        O  0.52032254  0.20271388  0.48806993    -0.73800
O368        O  0.46289905  0.20232071  0.42424074    -0.73800
O369        O  0.52129857  0.20154462  0.42524328    -0.73700
O370        O  0.46131400  0.20390908  0.48641714    -0.73800
Ni371      Ni  0.49219440  0.25336199  0.45466216     1.25400
Ni372      Ni  0.49151684  0.20088357  0.45608079     1.25400
C373        C  0.45216543  0.22900663  0.49614671     0.88500
C374        C  0.53078903  0.22556723  0.41366854     0.88400
C375        C  0.45305627  0.22663240  0.41341050     0.88400
C376        C  0.53071144  0.22725692  0.49738146     0.88600
C377        C  0.64415508  0.74891601  0.59328346    -0.13600
C378        C  0.64262185  0.77420554  0.57488415     0.16700
C379        C  0.66245958  0.79711845  0.58043498     0.03000
C380        C  0.68364835  0.79405120  0.60351461    -0.12100
C381        C  0.68566282  0.76844044  0.62150263    -0.03200
C382        C  0.66535385  0.74572051  0.61628844     0.02300
C383        C  0.61863456  0.77710894  0.55200967     0.09100
N384        N  0.66166637  0.82354993  0.56264820     0.65500
H385        H  0.69891770  0.81174731  0.60697129     0.18400
N386        N  0.66492637  0.71983157  0.63495770     0.75900
H387        H  0.62818652  0.73179095  0.59045311     0.09900
C388        C  0.61267580  0.75471768  0.53020471     0.03600
C389        C  0.58825632  0.75700785  0.51107001    -0.05100
C390        C  0.56935615  0.78130003  0.51300084    -0.23500
C391        C  0.57534038  0.80374314  0.53470552     0.12800
C392        C  0.59974575  0.80140170  0.55396407    -0.12700
N393        N  0.63121839  0.72953820  0.52701440     0.64500
H394        H  0.58420836  0.73964382  0.49438877     0.12400
N395        N  0.55597239  0.82807691  0.53895800     0.61200
H396        H  0.60324273  0.81812069  0.57146123     0.08500
O397        O  0.67407358  0.69575711  0.62397784    -0.40300
O398        O  0.64928429  0.71953973  0.65863338    -0.39500
O399        O  0.65358138  0.84730694  0.57522189    -0.39500
O400        O  0.67529385  0.82448920  0.53761092    -0.37200
O401        O  0.53467908  0.82532934  0.55666157    -0.38100
O402        O  0.56361388  0.85349020  0.53090473    -0.34300
O403        O  0.62269491  0.70483289  0.53635829    -0.35700
O404        O  0.65191376  0.73049095  0.50831565    -0.39900
C405        C  0.77686190  0.64553585  0.58576783    -0.13600
C406        C  0.79051196  0.61859653  0.59254565     0.16700
C407        C  0.80174898  0.61388387  0.62239605     0.03000
C408        C  0.79803308  0.63538302  0.64528779    -0.12100
C409        C  0.78291110  0.66187516  0.63928464    -0.03200
C410        C  0.77313065  0.66722592  0.60866418     0.02300
C411        C  0.79151487  0.59510255  0.56868041     0.09100
N412        N  0.81563316  0.58668056  0.63032230     0.65500
H413        H  0.80582939  0.63046098  0.66837871     0.18400
N414        N  0.75955181  0.69445803  0.60022425     0.75900
H415        H  0.76861597  0.64954943  0.56264035     0.09900
C416        C  0.76729533  0.57733656  0.56301148     0.03600
C417        C  0.76814490  0.55577195  0.53991353    -0.05100
C418        C  0.79287852  0.55130178  0.52177216    -0.23500
C419        C  0.81729943  0.56930116  0.52750716     0.12800
C420        C  0.81639695  0.59086859  0.55092169    -0.12700
N421        N  0.74155317  0.58095758  0.58061089     0.64500
H422        H  0.74912361  0.54239554  0.53625477     0.12400
N423        N  0.84266222  0.56702688  0.50906780     0.61200
H424        H  0.83505121  0.60469754  0.55493609     0.08500
O425        O  0.73264698  0.69513797  0.59507069    -0.40300
O426        O  0.77495880  0.71507691  0.59027130    -0.39500
O427        O  0.84269909  0.58596464  0.63433712    -0.39500
O428        O  0.80060034  0.56566248  0.64000636    -0.37200
O429        O  0.84663609  0.58571167  0.48808642    -0.38100
O430        O  0.86377226  0.55162042  0.51855688    -0.34300
O431        O  0.72013260  0.59445521  0.56895704    -0.35700
O432        O  0.73818500  0.56568947  0.60454487    -0.39900
C433        C  0.65678415  0.61696809  0.69690465    -0.13600
C434        C  0.63131196  0.62975644  0.70817286     0.16700
C435        C  0.63154597  0.65894283  0.71921412     0.03000
C436        C  0.65721793  0.67489145  0.71869473    -0.12100
C437        C  0.68288922  0.66194215  0.70791289    -0.03200
C438        C  0.68254518  0.63274292  0.69676265     0.02300
C439        C  0.60559697  0.61114437  0.71060130     0.09100
N440        N  0.60600948  0.67261077  0.73110616     0.65500
H441        H  0.65722095  0.69730792  0.72738441     0.18400
N442        N  0.70789589  0.61910252  0.68440151     0.75900
H443        H  0.65675301  0.59439665  0.68867650     0.09900
C444        C  0.59060433  0.60121104  0.68422031     0.03600
C445        C  0.56859925  0.58051936  0.68723551    -0.05100
C446        C  0.56147115  0.56906910  0.71630377    -0.23500
C447        C  0.57668441  0.57936599  0.74274352     0.12800
C448        C  0.59832073  0.60036525  0.73961221    -0.12700
N449        N  0.59772029  0.61174085  0.65422765     0.64500
H450        H  0.55738686  0.57310526  0.66658835     0.12400
N451        N  0.57152647  0.56789372  0.77281418     0.61200
H452        H  0.61034363  0.60745510  0.75989215     0.08500
O453        O  0.71176936  0.61931697  0.65562405    -0.40300
O454        O  0.72278315  0.60185541  0.70106328    -0.39500
O455        O  0.60159034  0.67214773  0.75978492    -0.39500
O456        O  0.59217461  0.69080326  0.71453728    -0.37200
O457        O  0.58838853  0.54845172  0.78370596    -0.38100
O458        O  0.55471239  0.58160587  0.79068110    -0.34300
O459        O  0.61580633  0.59770164  0.63811643    -0.35700
O460        O  0.58212341  0.63139318  0.64175835    -0.39900
C461        C  0.81115592  0.39259129  0.55850834    -0.13600
C462        C  0.78425186  0.37994875  0.56481523     0.16700
C463        C  0.76006596  0.38853675  0.54686063     0.03000
C464        C  0.76277595  0.41019527  0.52419099    -0.12100
C465        C  0.78941777  0.42369530  0.51820626    -0.03200
C466        C  0.81409214  0.41387306  0.53513913     0.02300
C467        C  0.78102693  0.36044016  0.59218413     0.09100
N468        N  0.73223451  0.37616945  0.55190864     0.65500
H469        H  0.74353296  0.41658765  0.51129315     0.18400
N470        N  0.84219257  0.42528517  0.52934841     0.75900
H471        H  0.82996714  0.38615085  0.57210087     0.09900
C472        C  0.77743430  0.32971351  0.58946856     0.03600
C473        C  0.77170216  0.31273397  0.61581721    -0.05100
C474        C  0.77064091  0.32563307  0.64535412    -0.23500
C475        C  0.77533249  0.35634021  0.64802479     0.12800
C476        C  0.78013988  0.37332375  0.62158821    -0.12700
N477        N  0.78080061  0.31528267  0.56036302     0.64500
H478        H  0.76864110  0.28922091  0.61324602     0.12400
N479        N  0.77375402  0.37102745  0.67718591     0.61200
H480        H  0.78275422  0.39692013  0.62400254     0.08500
O481        O  0.85981513  0.40996211  0.51391667    -0.40300
O482        O  0.85162792  0.44608574  0.54588346    -0.39500
O483        O  0.71340203  0.39127241  0.56587893    -0.39500
O484        O  0.72421570  0.35477789  0.53535492    -0.37200
O485        O  0.79676073  0.37566758  0.69228224    -0.38100
O486        O  0.75120698  0.38547550  0.68380207    -0.34300
O487        O  0.80593629  0.31076976  0.55019362    -0.35700
O488        O  0.75979094  0.30160600  0.54850351    -0.39900
C489        C  0.64154230  0.20447285  0.58723917    -0.13600
C490        C  0.62228520  0.22841166  0.58861165     0.16700
C491        C  0.62567727  0.24977973  0.61193626     0.03000
C492        C  0.64920960  0.24775924  0.63226035    -0.12100
C493        C  0.66906955  0.22421178  0.63049664    -0.03200
C494        C  0.66465978  0.20196322  0.60811670     0.02300
C495        C  0.59824186  0.22961280  0.56610875     0.09100
N496        N  0.60467376  0.27263527  0.61647792     0.65500
H497        H  0.65169413  0.26456261  0.64988500     0.18400
N498        N  0.68375926  0.17718695  0.60552568     0.75900
H499        H  0.63868287  0.18768943  0.56963670     0.09900
C500        C  0.59736100  0.25039746  0.54207642     0.03600
C501        C  0.57467951  0.24972420  0.52043849    -0.05100
C502        C  0.55364714  0.22760474  0.52137251    -0.23500
C503        C  0.55554545  0.20597034  0.54467690     0.12800
C504        C  0.57736862  0.20757352  0.56710831    -0.12700
N505        N  0.62066070  0.27036984  0.53763379     0.64500
H506        H  0.57430922  0.26572939  0.50194066     0.12400
N507        N  0.53583324  0.18198779  0.54580186     0.61200
H508        H  0.57848462  0.19101386  0.58505135     0.08500
O509        O  0.70632362  0.17940584  0.58961507    -0.40300
O510        O  0.67463121  0.15192221  0.61221890    -0.39500
O511        O  0.58339686  0.26767615  0.63364357    -0.39500
O512        O  0.61150028  0.29895574  0.61118089    -0.37200
O513        O  0.54444649  0.15662172  0.53793835    -0.38100
O514        O  0.51307951  0.18461041  0.56142066    -0.34300
O515        O  0.64225478  0.26202209  0.52219610    -0.35700
O516        O  0.61673253  0.29751161  0.54248190    -0.39900
C517        C  0.62426878  0.34596539  0.71984783    -0.13600
C518        C  0.63082629  0.37592017  0.71580353     0.16700
C519        C  0.66021515  0.38372988  0.71325341     0.03000
C520        C  0.68202591  0.36208982  0.71493644    -0.12100
C521        C  0.67568246  0.33214043  0.71892526    -0.03200
C522        C  0.64625170  0.32417229  0.72143769     0.02300
C523        C  0.60725244  0.39897059  0.71660819     0.09100
N524        N  0.66840572  0.41357293  0.70820328     0.65500
H525        H  0.70427158  0.36888313  0.71268408     0.18400
N526        N  0.63832479  0.29450982  0.72780840     0.75900
H527        H  0.60196923  0.33951172  0.72277659     0.09900
C528        C  0.58290951  0.39830588  0.69654843     0.03600
C529        C  0.56145667  0.42050060  0.69829433    -0.05100
C530        C  0.56322033  0.44341854  0.72016799    -0.23500
C531        C  0.58726507  0.44372285  0.74057730     0.12800
C532        C  0.60882000  0.42175251  0.73861522    -0.12700
N533        N  0.57978593  0.37553799  0.67392879     0.64500
H534        H  0.54317945  0.41970823  0.68245267     0.12400
N535        N  0.59079827  0.46680780  0.76273320     0.61200
H536        H  0.62684251  0.42236377  0.75476731     0.08500
O537        O  0.62856490  0.27860271  0.70623701    -0.40300
O538        O  0.63419442  0.28699238  0.75540799    -0.39500
O539        O  0.67924878  0.42816623  0.73022536    -0.39500
O540        O  0.67170901  0.42243164  0.68091782    -0.37200
O541        O  0.58061975  0.46378536  0.78942124    -0.38100
O542        O  0.60928170  0.48652005  0.75805358    -0.34300
O543        O  0.55926186  0.35755584  0.67606417    -0.35700
O544        O  0.59358233  0.37704844  0.64902982    -0.39900
C545        C  0.36219906  0.21457954  0.61192864    -0.13600
C546        C  0.36431411  0.23805467  0.59116169     0.16700
C547        C  0.34511500  0.26220109  0.59432250     0.03000
C548        C  0.32550430  0.26319786  0.61888495    -0.12100
C549        C  0.32432678  0.24043918  0.64080761    -0.03200
C550        C  0.34253674  0.21546739  0.63648627     0.02300
C551        C  0.38646517  0.23655214  0.56632531     0.09100
N552        N  0.34481249  0.28572898  0.57253339     0.65500
H553        H  0.31176697  0.28251667  0.62130539     0.18400
N554        N  0.34122084  0.19059037  0.65649109     0.75900
H555        H  0.37625052  0.19551435  0.60930812     0.09900
C556        C  0.41207356  0.25323853  0.56790625     0.03600
C557        C  0.43282090  0.25061638  0.54461575    -0.05100
C558        C  0.42926299  0.23081747  0.51996909    -0.23500
C559        C  0.40394434  0.21362756  0.51864319     0.12800
C560        C  0.38280895  0.21673156  0.54163048    -0.12700
N561        N  0.41838412  0.27143274  0.59403186     0.64500
H562        H  0.45235760  0.26355971  0.54634499     0.12400
N563        N  0.39881298  0.19379207  0.49354571     0.61200
H564        H  0.36342508  0.20353810  0.54023365     0.08500
O565        O  0.36010273  0.18749668  0.67749848    -0.40300
O566        O  0.32626532  0.16871802  0.64841008    -0.39500
O567        O  0.32616330  0.28557348  0.55106514    -0.39500
O568        O  0.35685489  0.30966234  0.57962210    -0.37200
O569        O  0.38398203  0.20237256  0.47061869    -0.38100
O570        O  0.40352610  0.16661276  0.49721021    -0.34300
O571        O  0.43434115  0.26118975  0.61529852    -0.35700
O572        O  0.41546438  0.29897250  0.59165487    -0.39900
C573        C  0.18615008  0.38696525  0.63431357    -0.13600
C574        C  0.20685867  0.39517015  0.61290726     0.16700
C575        C  0.23314124  0.37957219  0.61087685     0.03000
C576        C  0.23792492  0.35510334  0.62939812    -0.12100
C577        C  0.21686889  0.34585667  0.65019871    -0.03200
C578        C  0.19100844  0.36262137  0.65327847     0.02300
C579        C  0.20113359  0.42015766  0.59267554     0.09100
N580        N  0.25468270  0.38760566  0.58914573     0.65500
H581        H  0.25790682  0.34277138  0.62663275     0.18400
N582        N  0.16980254  0.35584739  0.67585657     0.75900
H583        H  0.16620234  0.39953870  0.63630674     0.09900
C584        C  0.18270161  0.41740797  0.56683542     0.03600
C585        C  0.18205346  0.43962690  0.54481994    -0.05100
C586        C  0.19990547  0.46419366  0.54816895    -0.23500
C587        C  0.21600809  0.46826194  0.57559381     0.12800
C588        C  0.21653394  0.44609892  0.59770901    -0.12700
N589        N  0.16667050  0.39113979  0.56121753     0.64500
H590        H  0.16947328  0.43643001  0.52383028     0.12400
N591        N  0.23182266  0.49462984  0.58129941     0.61200
H592        H  0.23001044  0.44851208  0.61817537     0.08500
O593        O  0.14747289  0.34191151  0.66775854    -0.40300
O594        O  0.16969076  0.37010244  0.70090757    -0.39500
O595        O  0.27687382  0.40111263  0.59843674    -0.39500
O596        O  0.25476435  0.37550965  0.56288778    -0.37200
O597        O  0.22075658  0.51429813  0.59821613    -0.38100
O598        O  0.25873067  0.49477452  0.57678979    -0.34300
O599        O  0.13946528  0.39189032  0.56321065    -0.35700
O600        O  0.17866672  0.36983653  0.54744878    -0.39900
C601        C  0.35036617  0.37931291  0.70742435    -0.13600
C602        C  0.37407196  0.37684166  0.72773763     0.16700
C603        C  0.37586146  0.35241468  0.74772357     0.03000
C604        C  0.35542266  0.33005117  0.74527945    -0.12100
C605        C  0.33257048  0.33162552  0.72370433    -0.03200
C606        C  0.32968168  0.35710177  0.70519791     0.02300
C607        C  0.39676247  0.39970140  0.72716289     0.09100
N608        N  0.39840634  0.34962682  0.77038148     0.65500
H609        H  0.35759561  0.31120171  0.76042301     0.18400
N610        N  0.30673236  0.36040859  0.68310690     0.75900
H611        H  0.34805902  0.39852926  0.69283460     0.09900
C612        C  0.41066259  0.40714626  0.69944997     0.03600
C613        C  0.43150566  0.42917493  0.69943603    -0.05100
C614        C  0.43915123  0.44423538  0.72663588    -0.23500
C615        C  0.42481466  0.43713277  0.75431124     0.12800
C616        C  0.40376716  0.41516263  0.75423192    -0.12700
N617        N  0.40419253  0.39229854  0.67109051     0.64500
H618        H  0.44199364  0.43420224  0.67786698     0.12400
N619        N  0.43057958  0.45248987  0.78251895     0.61200
H620        H  0.39244290  0.41058340  0.77539283     0.08500
O621        O  0.31118717  0.35333170  0.65536542    -0.40300
O622        O  0.28563994  0.37715210  0.68935553    -0.39500
O623        O  0.39331737  0.35735972  0.79781503    -0.39500
O624        O  0.41931975  0.33230699  0.76527479    -0.37200
O625        O  0.41276846  0.47168816  0.79184115    -0.38100
O626        O  0.44938977  0.44237996  0.80104866    -0.34300
O627        O  0.38961388  0.40554298  0.65053542    -0.35700
O628        O  0.41860203  0.36962777  0.66384915    -0.39900
C629        C  0.93013314  0.88509771  0.73840046    -0.13600
C630        C  0.91425776  0.87972098  0.71130797     0.16700
C631        C  0.91800901  0.89780613  0.68548965     0.03000
C632        C  0.93753813  0.92091240  0.68694965    -0.12100
C633        C  0.95348628  0.92677161  0.71401767    -0.03200
C634        C  0.94967870  0.90848387  0.74005394     0.02300
C635        C  0.89105648  0.85786000  0.71133874     0.09100
N636        N  0.90125927  0.89369483  0.65794677     0.65500
H637        H  0.93972871  0.93469941  0.66676870     0.18400
N638        N  0.96531377  0.91318879  0.76823896     0.75900
H639        H  0.92683488  0.87149340  0.75853543     0.09900
C640        C  0.89533310  0.82889402  0.70059205     0.03600
C641        C  0.87171986  0.80997358  0.69796398    -0.05100
C642        C  0.84381341  0.81970320  0.70567495    -0.23500
C643        C  0.84001327  0.84824031  0.71826062     0.12800
C644        C  0.86361233  0.86704326  0.72080159    -0.12700
N645        N  0.92332647  0.81859115  0.69174103     0.64500
H646        H  0.87506500  0.78795187  0.68887703     0.12400
N647        N  0.81265051  0.85815479  0.72956405     0.61200
H648        H  0.86042565  0.88915278  0.72975425     0.08500
O649        O  0.95359141  0.92779452  0.78963376    -0.40300
O650        O  0.98714292  0.89727949  0.77432433    -0.39500
O651        O  0.87893688  0.90937793  0.65352616    -0.39500
O652        O  0.91232233  0.88011379  0.63546403    -0.37200
O653        O  0.80794401  0.85697356  0.75816270    -0.38100
O654        O  0.79705055  0.87475956  0.71292077    -0.34300
O655        O  0.93732576  0.80167806  0.70959775    -0.35700
O656        O  0.93078306  0.82056248  0.66391197    -0.39900
C657        C  0.91047501  0.08927348  0.73546701    -0.13600
C658        C  0.89411452  0.09161513  0.70820242     0.16700
C659        C  0.90149471  0.07380467  0.68274806     0.03000
C660        C  0.92491307  0.05407838  0.68496154    -0.12100
C661        C  0.94190614  0.05195874  0.71206162    -0.03200
C662        C  0.93435245  0.06999098  0.73755520     0.02300
C663        C  0.87138011  0.11478738  0.70572962     0.09100
N664        N  0.88575882  0.07587123  0.65425040     0.65500
H665        H  0.93001837  0.04061618  0.66501818     0.18400
N666        N  0.95185007  0.07091679  0.76485849     0.75900
H667        H  0.90542352  0.10346313  0.75488288     0.09900
C668        C  0.84422707  0.11196836  0.71986164     0.03600
C669        C  0.82327916  0.13416579  0.71613068    -0.05100
C670        C  0.82915667  0.15993541  0.69961103    -0.23500
C671        C  0.85683002  0.16339839  0.68675928     0.12800
C672        C  0.87743996  0.14063174  0.68946475    -0.12700
N673        N  0.83765476  0.08702706  0.73844475     0.64500
H674        H  0.80236526  0.13151330  0.72682524     0.12400
N675        N  0.86416696  0.18933981  0.67016643     0.61200
H676        H  0.89844978  0.14323286  0.67900710     0.08500
O677        O  0.94374920  0.05724777  0.78848023    -0.40300
O678        O  0.96973616  0.09152561  0.76802950    -0.39500
O679        O  0.89377179  0.09394850  0.63409328    -0.39500
O680        O  0.86868557  0.05552978  0.64659876    -0.37200
O681        O  0.87896865  0.20887630  0.68356070    -0.38100
O682        O  0.86307727  0.18888458  0.64106823    -0.34300
O683        O  0.84458238  0.08741435  0.76669031    -0.35700
O684        O  0.81863918  0.06920390  0.72918599    -0.39900
C685        C  0.08468989  0.10776468  0.72336119    -0.13600
C686        C  0.10499780  0.10694708  0.69964510     0.16700
C687        C  0.10575429  0.08265009  0.67938699     0.03000
C688        C  0.08580912  0.06001222  0.68265405    -0.12100
C689        C  0.06551316  0.06066874  0.70646615    -0.03200
C690        C  0.06517755  0.08476790  0.72714676     0.02300
C691        C  0.12613644  0.13092240  0.69752897     0.09100
N692        N  0.12670126  0.08055916  0.65547687     0.65500
H693        H  0.08651404  0.04155344  0.66673552     0.18400
N694        N  0.04446731  0.08699516  0.75124588     0.75900
H695        H  0.08428483  0.12617240  0.73935277     0.09900
C696        C  0.11725896  0.16012929  0.69180781     0.03600
C697        C  0.13776150  0.18241199  0.69123324    -0.05100
C698        C  0.16721916  0.17643240  0.69701702    -0.23500
C699        C  0.17595730  0.14715111  0.70352729     0.12800
C700        C  0.15541420  0.12471712  0.70338830    -0.12700
N701        N  0.08748688  0.16763815  0.68681099     0.64500
H702        H  0.13030216  0.20474425  0.68700083     0.12400
N703        N  0.20539146  0.13969826  0.71049119     0.61200
H704        H  0.16226080  0.10239296  0.70866932     0.08500
O705        O  0.02418084  0.10560503  0.74864111    -0.40300
O706        O  0.05101313  0.07722728  0.77765871    -0.39500
O707        O  0.14874360  0.06436316  0.65944595    -0.39500
O708        O  0.11985060  0.08864860  0.62853525    -0.37200
O709        O  0.21313169  0.13652656  0.73830886    -0.38100
O710        O  0.22117375  0.12931456  0.68943809    -0.34300
O711        O  0.07347262  0.17969291  0.70834965    -0.35700
O712        O  0.07782094  0.16934220  0.65953505    -0.39900
C713        C  0.25129547  0.66546268  0.57514119    -0.13600
C714        C  0.22441805  0.66779369  0.56009197     0.16700
C715        C  0.20475578  0.68989065  0.56913642     0.03000
C716        C  0.21158242  0.70819745  0.59410845    -0.12100
C717        C  0.23755950  0.70443933  0.61090939    -0.03200
C718        C  0.25794794  0.68322196  0.60060696     0.02300
C719        C  0.21546530  0.64307277  0.54017421     0.09100
N720        N  0.17718082  0.69299435  0.55424605     0.65500
H721        H  0.19576869  0.72455094  0.60122368     0.18400
N722        N  0.28398886  0.67701270  0.61753324     0.75900
H723        H  0.26621245  0.64794076  0.56882579     0.09900
C724        C  0.23055011  0.63607289  0.51304936     0.03600
C725        C  0.22681824  0.60862809  0.49921526    -0.05100
C726        C  0.20850187  0.58778464  0.51214625    -0.23500
C727        C  0.19230302  0.59507079  0.53843798     0.12800
C728        C  0.19581989  0.62277100  0.55217129    -0.12700
N729        N  0.25095790  0.65587951  0.50025357     0.64500
H730        H  0.23922936  0.60309831  0.47886201     0.12400
N731        N  0.17496337  0.57363447  0.55342479     0.61200
H732        H  0.18485199  0.62759047  0.57361879     0.08500
O733        O  0.30798916  0.68395147  0.60617810    -0.40300
O734        O  0.28345133  0.65855009  0.63921181    -0.39500
O735        O  0.15465135  0.68593073  0.56852808    -0.39500
O736        O  0.17490215  0.70861903  0.53031624    -0.37200
O737        O  0.18436449  0.56158606  0.57777244    -0.38100
O738        O  0.14840370  0.57198719  0.54675101    -0.34300
O739        O  0.27762891  0.65052023  0.50367478    -0.35700
O740        O  0.24272545  0.67324883  0.47920532    -0.39900
C741        C  0.42253064  0.75974125  0.57064703    -0.13600
C742        C  0.40773648  0.78620605  0.57618436     0.16700
C743        C  0.41316803  0.81101727  0.55813671     0.03000
C744        C  0.43291493  0.80899510  0.53429692    -0.12100
C745        C  0.44745714  0.78241226  0.52790079    -0.03200
C746        C  0.44242342  0.75756024  0.54668215     0.02300
C747        C  0.38594656  0.78723013  0.60029850     0.09100
N748        N  0.39827075  0.83825227  0.56322954     0.65500
H749        H  0.43629664  0.82835535  0.52029871     0.18400
N750        N  0.45732316  0.73018267  0.54213491     0.75900
H751        H  0.41840186  0.74066222  0.58485035     0.09900
C752        C  0.35760285  0.77831242  0.59389208     0.03600
C753        C  0.33757412  0.77758807  0.61752627    -0.05100
C754        C  0.34532709  0.78540705  0.64796184    -0.23500
C755        C  0.37374168  0.79570448  0.65394707     0.12800
C756        C  0.39377660  0.79637012  0.63001734    -0.12700
N757        N  0.34903685  0.76920724  0.56357886     0.64500
H758        H  0.31604258  0.76983855  0.61195403     0.12400
N759        N  0.38284984  0.80534209  0.68391606     0.61200
H760        H  0.41566579  0.80361811  0.63472698     0.08500
O761        O  0.47999343  0.72481140  0.55767211    -0.40300
O762        O  0.44419483  0.70915844  0.52922580    -0.39500
O763        O  0.41165675  0.85932709  0.57571487    -0.39500
O764        O  0.37508916  0.84345204  0.54853637    -0.37200
O765        O  0.39895641  0.78876905  0.70001668    -0.38100
O766        O  0.38170011  0.83245315  0.69027853    -0.34300
O767        O  0.34984754  0.74220722  0.55663703    -0.35700
O768        O  0.33482623  0.78680587  0.54667056    -0.39900
C769        C  0.38404878  0.66532260  0.72919846    -0.13600
C770        C  0.37197673  0.63865099  0.71935144     0.16700
C771        C  0.34221219  0.63800141  0.71174058     0.03000
C772        C  0.32543550  0.66391313  0.71362809    -0.12100
C773        C  0.33760045  0.69073840  0.72328061    -0.03200
C774        C  0.36734428  0.69114712  0.73117236     0.02300
C775        C  0.39110453  0.61205222  0.71914136     0.09100
N776        N  0.32838918  0.61124814  0.70287048     0.65500
H777        H  0.30267778  0.66300366  0.70746474     0.18400
N778        N  0.38160217  0.71798263  0.73877482     0.75900
H779        H  0.40689000  0.66619485  0.73503081     0.09900
C780        C  0.40229524  0.59990871  0.69168565     0.03600
C781        C  0.42433505  0.57835148  0.69310626    -0.05100
C782        C  0.43565751  0.56821912  0.72155511    -0.23500
C783        C  0.42329550  0.57960082  0.74897573     0.12800
C784        C  0.40156257  0.60135484  0.74746771    -0.12700
N785        N  0.39235177  0.60987805  0.66214991     0.64500
H786        H  0.43293673  0.56989784  0.67163638     0.12400
N787        N  0.43243879  0.56949796  0.77870128     0.61200
H788        H  0.39318911  0.61051457  0.76875292     0.08500
O789        O  0.39510971  0.73121319  0.71794018    -0.40300
O790        O  0.38704201  0.72393566  0.76668996    -0.39500
O791        O  0.31444557  0.59730631  0.72287650    -0.39500
O792        O  0.32270042  0.60684889  0.67470332    -0.37200
O793        O  0.41742735  0.55068016  0.79247554    -0.38100
O794        O  0.45106906  0.58394578  0.79373107    -0.34300
O795        O  0.40602566  0.62991570  0.64867031    -0.35700
O796        O  0.37556983  0.59374824  0.64653705    -0.39900
C797        C  0.10060300  0.89264165  0.68203783    -0.13600
C798        C  0.11196294  0.88245513  0.71022597     0.16700
C799        C  0.10386618  0.89717733  0.73756526     0.03000
C800        C  0.08440787  0.92107445  0.73643157    -0.12100
C801        C  0.07262504  0.93127464  0.70832560    -0.03200
C802        C  0.08135228  0.91681669  0.68073985     0.02300
C803        C  0.13338543  0.85756152  0.71051189     0.09100
N804        N  0.11467760  0.88770497  0.76690623     0.65500
H805        H  0.07829438  0.93148393  0.75796004     0.18400
N806        N  0.07127044  0.92636226  0.65110145     0.75900
H807        H  0.10708234  0.88200298  0.66074088     0.09900
C808        C  0.12615406  0.82916410  0.69981613     0.03600
C809        C  0.14704890  0.80653298  0.69993521    -0.05100
C810        C  0.17555307  0.81122784  0.71063569    -0.23500
C811        C  0.18289233  0.83995576  0.72069405     0.12800
C812        C  0.16189187  0.86261687  0.72056540    -0.12700
N813        N  0.09735278  0.82251303  0.68992770     0.64500
H814        H  0.14051005  0.78481494  0.69232143     0.12400
N815        N  0.21171673  0.84694129  0.73011023     0.61200
H816        H  0.16802351  0.88449626  0.72806847     0.08500
O817        O  0.04990537  0.91370232  0.63869481    -0.40300
O818        O  0.08763802  0.94167716  0.63460251    -0.39500
O819        O  0.13401653  0.90256974  0.78035478    -0.39500
O820        O  0.10032698  0.86945931  0.78223120    -0.37200
O821        O  0.22812586  0.85942183  0.71120972    -0.38100
O822        O  0.21795502  0.84774418  0.75851563    -0.34300
O823        O  0.09204012  0.81930520  0.66149608    -0.35700
O824        O  0.07972612  0.81266238  0.70928608    -0.39900
C825        C  0.11275945  0.71550218  0.87488070    -0.13600
C826        C  0.11266332  0.69241324  0.85327740     0.16700
C827        C  0.09324787  0.66893255  0.85700659     0.03000
C828        C  0.07405802  0.66936772  0.88174126    -0.12100
C829        C  0.07412274  0.69257219  0.90318201    -0.03200
C830        C  0.09409948  0.71559215  0.89991408     0.02300
C831        C  0.13412645  0.69361201  0.82826335     0.09100
N832        N  0.09348239  0.64388071  0.83699063     0.65500
H833        H  0.05899479  0.65139409  0.88415425     0.18400
N834        N  0.09697312  0.73827249  0.92268493     0.75900
H835        H  0.12788078  0.73345059  0.87257091     0.09900
C836        C  0.12595012  0.69655318  0.79699036     0.03600
C837        C  0.14674400  0.70400386  0.77523095    -0.05100
C838        C  0.17560512  0.70934993  0.78402938    -0.23500
C839        C  0.18398038  0.70487793  0.81508438     0.12800
C840        C  0.16332289  0.69679306  0.83669590    -0.12700
N841        N  0.09641990  0.69459046  0.78718195     0.64500
H842        H  0.13977648  0.70733455  0.75152798     0.12400
N843        N  0.21319935  0.70863405  0.82526269     0.61200
H844        H  0.16988337  0.69437946  0.86065921     0.08500
O845        O  0.08610991  0.76338682  0.91752396    -0.40300
O846        O  0.11583001  0.73540674  0.94376233    -0.39500
O847        O  0.11145270  0.62339842  0.84231075    -0.39500
O848        O  0.07111398  0.63829750  0.82115869    -0.37200
O849        O  0.22007948  0.73210001  0.83906918    -0.38100
O850        O  0.22941005  0.68625920  0.82787996    -0.34300
O851        O  0.08093817  0.71762001  0.78708120    -0.35700
O852        O  0.08882315  0.67301806  0.77064453    -0.39900
C853        C  0.86622633  0.68244831  0.82738716    -0.13600
C854        C  0.88883451  0.70279002  0.82787896     0.16700
C855        C  0.88962951  0.72467569  0.80482125     0.03000
C856        C  0.86699677  0.72696651  0.78319398    -0.12100
C857        C  0.84399674  0.70702737  0.78313438    -0.03200
C858        C  0.84416254  0.68405727  0.80508559     0.02300
C859        C  0.91108399  0.70044161  0.85275090     0.09100
N860        N  0.91406937  0.74339674  0.80158290     0.65500
H861        H  0.86785077  0.74399970  0.76577196     0.18400
N862        N  0.82173685  0.66263698  0.80571469     0.75900
H863        H  0.86555281  0.66529025  0.84468165     0.09900
C864        C  0.91508485  0.72307891  0.87466639     0.03600
C865        C  0.93579470  0.71969937  0.89816663    -0.05100
C866        C  0.95233489  0.69370026  0.90121517    -0.23500
C867        C  0.94739215  0.67047893  0.88000923     0.12800
C868        C  0.92709631  0.67417597  0.85594831    -0.12700
N869        N  0.89699305  0.74878178  0.87481024     0.64500
H870        H  0.93839925  0.73746790  0.91470182     0.12400
N871        N  0.96303627  0.64327798  0.88199116     0.61200
H872        H  0.92376774  0.65635198  0.83962296     0.08500
O873        O  0.80053502  0.66653334  0.82340614    -0.40300
O874        O  0.82640194  0.63737144  0.79449765    -0.39500
O875        O  0.93486996  0.73457329  0.78523249    -0.39500
O876        O  0.91103207  0.77066105  0.80637640    -0.37200
O877        O  0.95077598  0.62110934  0.89323563    -0.38100
O878        O  0.98511110  0.63951903  0.86551426    -0.34300
O879        O  0.87235415  0.74733863  0.88693435    -0.35700
O880        O  0.90828130  0.77370286  0.87118726    -0.39900
C881        C  0.72935321  0.86287584  0.78775264    -0.13600
C882        C  0.74543375  0.85838820  0.81497430     0.16700
C883        C  0.76211042  0.83236566  0.81788695     0.03000
C884        C  0.76332310  0.81213040  0.79336549    -0.12100
C885        C  0.74822923  0.81704359  0.76541747    -0.03200
C886        C  0.73058643  0.84272413  0.76309100     0.02300
C887        C  0.74397673  0.88107216  0.83992910     0.09100
N888        N  0.77754323  0.82572096  0.84576892     0.65500
H889        H  0.77677174  0.79263663  0.79616683     0.18400
N890        N  0.71452183  0.84944284  0.73561469     0.75900
H891        H  0.71618607  0.88262385  0.78533246     0.09900
C892        C  0.76719169  0.90013682  0.84643059     0.03600
C893        C  0.76426619  0.92226646  0.86892326    -0.05100
C894        C  0.73840885  0.92634505  0.88535120    -0.23500
C895        C  0.71507112  0.90721986  0.87860266     0.12800
C896        C  0.71807275  0.88503906  0.85605368    -0.12700
N897        N  0.79348915  0.89833314  0.82947730     0.64500
H898        H  0.78241164  0.93671369  0.87315489     0.12400
N899        N  0.68844232  0.90922139  0.89490875     0.61200
H900        H  0.69998049  0.87069252  0.85113139     0.08500
O901        O  0.72587672  0.86522135  0.71521236    -0.40300
O902        O  0.68748336  0.84588873  0.73520895    -0.39500
O903        O  0.76452229  0.81265217  0.86709684    -0.39500
O904        O  0.80483144  0.82506962  0.84552721    -0.37200
O905        O  0.66664703  0.92066832  0.88172073    -0.38100
O906        O  0.68477286  0.89285687  0.91798059    -0.34300
O907        O  0.79708048  0.91571897  0.80722891    -0.35700
O908        O  0.81536199  0.88625045  0.84184326    -0.39900
C909        C  0.76054745  0.08727017  0.84835587    -0.13600
C910        C  0.73507746  0.10386434  0.84374276     0.16700
C911        C  0.71018340  0.09575096  0.86022418     0.03000
C912        C  0.71124351  0.07187438  0.88080421    -0.12100
C913        C  0.73681926  0.05547054  0.88585689    -0.03200
C914        C  0.76172988  0.06347957  0.86906775     0.02300
C915        C  0.73457448  0.12787176  0.81995912     0.09100
N916        N  0.68378961  0.11211783  0.85722115     0.65500
H917        H  0.69187155  0.06656016  0.89339877     0.18400
N918        N  0.78824679  0.04723874  0.87180819     0.75900
H919        H  0.77964378  0.09237733  0.83520133     0.09900
C920        C  0.75509673  0.15073875  0.82016871     0.03600
C921        C  0.75645674  0.17046912  0.79534321    -0.05100
C922        C  0.73791859  0.16811819  0.76942860    -0.23500
C923        C  0.71659308  0.14581103  0.76982689     0.12800
C924        C  0.71512963  0.12621728  0.79488860    -0.12700
N925        N  0.77501129  0.15419871  0.84533796     0.64500
H926        H  0.77293881  0.18726720  0.79612016     0.12400
N927        N  0.69701475  0.14163838  0.74449305     0.61200
H928        H  0.69954228  0.10857056  0.79391721     0.08500
O929        O  0.80833969  0.05729737  0.88860327    -0.40300
O930        O  0.79412626  0.02785047  0.85184070    -0.39500
O931        O  0.66282164  0.10092775  0.84261618    -0.39500
O932        O  0.67908577  0.13329363  0.87547491    -0.37200
O933        O  0.67072762  0.14863813  0.74760933    -0.38100
O934        O  0.70417223  0.12460699  0.72274072    -0.34300
O935        O  0.80138191  0.14796875  0.84142608    -0.35700
O936        O  0.76787131  0.17010908  0.86799089    -0.39900
C937        C  0.88036713  0.24887798  0.80958169    -0.13600
C938        C  0.88321658  0.27428159  0.82780907     0.16700
C939        C  0.86502344  0.29874441  0.82141726     0.03000
C940        C  0.84353505  0.29667222  0.79853780    -0.12100
C941        C  0.83942387  0.27055614  0.78163520    -0.03200
C942        C  0.85868303  0.24662077  0.78694332     0.02300
C943        C  0.90607276  0.27501983  0.85228590     0.09100
N944        N  0.86735295  0.32562472  0.83847497     0.65500
H945        H  0.82933554  0.31546656  0.79478145     0.18400
N946        N  0.85727720  0.22012302  0.76911929     0.75900
H947        H  0.89524367  0.23055847  0.81278407     0.09900
C948        C  0.90933221  0.25206489  0.87408218     0.03600
C949        C  0.93208183  0.25267787  0.89560700    -0.05100
C950        C  0.95180414  0.27593073  0.89631445    -0.23500
C951        C  0.94875918  0.29874527  0.87438825     0.12800
C952        C  0.92615834  0.29799122  0.85262756    -0.12700
N953        N  0.88940214  0.22822856  0.87523282     0.64500
H954        H  0.93390672  0.23506765  0.91234938     0.12400
N955        N  0.96929708  0.32197813  0.87268138     0.61200
H956        H  0.92489382  0.31505606  0.83527069     0.08500
O957        O  0.84300468  0.19871969  0.77919704    -0.40300
O958        O  0.87625463  0.21538988  0.74895324    -0.39500
O959        O  0.87724450  0.34809605  0.82533942    -0.39500
O960        O  0.85290612  0.32884700  0.86280671    -0.37200
O961        O  0.99135221  0.31859631  0.85608692    -0.38100
O962        O  0.96211621  0.34754753  0.88135760    -0.34300
O963        O  0.89740276  0.20302407  0.86616727    -0.35700
O964        O  0.86755886  0.23049060  0.89231072    -0.39900
C965        C  0.10771307  0.25081622  0.86244150    -0.13600
C966        C  0.12366980  0.27660791  0.85883594     0.16700
C967        C  0.11596867  0.30195512  0.87573286     0.03000
C968        C  0.09285398  0.30103369  0.89620472    -0.12100
C969        C  0.07656355  0.27532673  0.89973928    -0.03200
C970        C  0.08404563  0.25002950  0.88224544     0.02300
C971        C  0.14459439  0.27769147  0.83340861     0.09100
N972        N  0.13110535  0.32894993  0.87203131     0.65500
H973        H  0.08760612  0.32071377  0.90928847     0.18400
N974        N  0.06666820  0.22416298  0.88234729     0.75900
H975        H  0.11268397  0.23161180  0.84845978     0.09900
C976        C  0.16973031  0.25999113  0.83326861     0.03600
C977        C  0.18562825  0.25694388  0.80616586    -0.05100
C978        C  0.17661144  0.27071707  0.77860388    -0.23500
C979        C  0.15198021  0.28956672  0.77935456     0.12800
C980        C  0.13648616  0.29296521  0.80668457    -0.12700
N981        N  0.17892222  0.24422618  0.86015448     0.64500
H982        H  0.20448141  0.24261636  0.80652654     0.12400
N983        N  0.14146471  0.30451076  0.75248869     0.61200
H984        H  0.11689383  0.30627775  0.80649348     0.08500
O985        O  0.07503655  0.20203056  0.89764641    -0.40300
O986        O  0.04747398  0.22099820  0.86169941    -0.39500
O987        O  0.11959506  0.34928967  0.85624360    -0.39500
O988        O  0.15154722  0.33502255  0.89042264    -0.37200
O989        O  0.14691311  0.33148962  0.74935496    -0.38100
O990        O  0.12084670  0.29346127  0.73718967    -0.34300
O991        O  0.17560385  0.21669654  0.86109375    -0.35700
O992        O  0.19648813  0.25618629  0.87870564    -0.39900
C993        C  0.26691690  0.07132086  0.83930025    -0.13600
C994        C  0.28942083  0.09174069  0.83960894     0.16700
C995        C  0.31140706  0.08961363  0.86220339     0.03000
C996        C  0.31046355  0.06725937  0.88416478    -0.12100
C997        C  0.28707196  0.04785424  0.88508435    -0.03200
C998        C  0.26521817  0.04977456  0.86212385     0.02300
C999        C  0.28692120  0.11749423  0.81924706     0.09100
N1000       N  0.33278344  0.11193271  0.86553795     0.65500
H1001       H  0.32692422  0.06667749  0.90216618     0.18400
N1002       N  0.24098202  0.03048329  0.86175362     0.75900
H1003       H  0.24972344  0.07315148  0.82217986     0.09900
C1004       C  0.30536668  0.12172958  0.79407994     0.03600
C1005       C  0.30149494  0.14645448  0.77526969    -0.05100
C1006       C  0.27918458  0.16692985  0.78094049    -0.23500
C1007       C  0.26071797  0.16246785  0.80631025     0.12800
C1008       C  0.26482858  0.13792150  0.82513163    -0.12700
N1009       N  0.32729301  0.10060901  0.78657496     0.64500
H1010       H  0.31566775  0.14929884  0.75576884     0.12400
N1011       N  0.23833443  0.18305372  0.81405217     0.61200
H1012       H  0.25064959  0.13476851  0.84459614     0.08500
O1013       O  0.23938433  0.01112603  0.84087929    -0.40300
O1014       O  0.21819660  0.03827230  0.87546830    -0.39500
O1015       O  0.32731274  0.13403330  0.88230091    -0.39500
O1016       O  0.35875705  0.10583387  0.85934014    -0.37200
O1017       O  0.21304376  0.17905715  0.80372031    -0.38100
O1018       O  0.24210249  0.20030007  0.83661064    -0.34300
O1019       O  0.32177444  0.08090216  0.76683067    -0.35700
O1020       O  0.35331444  0.10609725  0.79326368    -0.39900
C1021       C  0.29849198  0.83818507  0.85711142    -0.13600
C1022       C  0.27226193  0.84204559  0.87257250     0.16700
C1023       C  0.24814122  0.82521409  0.86363267     0.03000
C1024       C  0.25025419  0.80595920  0.83858150    -0.12100
C1025       C  0.27602365  0.80334271  0.82187419    -0.03200
C1026       C  0.30060082  0.81916719  0.83184749     0.02300
C1027       C  0.26923943  0.86801039  0.89278274     0.09100
N1028       N  0.22098874  0.82845280  0.87879372     0.65500
H1029       H  0.23119354  0.79391238  0.83140462     0.18400
N1030       N  0.32684575  0.81881876  0.81470972     0.75900
H1031       H  0.31683898  0.85186239  0.86300466     0.09900
C1032       C  0.28797108  0.87270028  0.91814142     0.03600
C1033       C  0.28908495  0.90044378  0.93201380    -0.05100
C1034       C  0.27160229  0.92362480  0.92116917    -0.23500
C1035       C  0.25172838  0.91851899  0.89692001     0.12800
C1036       C  0.25094586  0.89090946  0.88276749    -0.12700
N1037       N  0.30632324  0.84971914  0.92972817     0.64500
H1038       H  0.30394538  0.90397533  0.95116778     0.12400
N1039       N  0.23447816  0.94179902  0.88418513     0.61200
H1040       H  0.23728513  0.88795845  0.86253634     0.08500
O1041       O  0.34789753  0.80327415  0.82408702    -0.40300
O1042       O  0.33117086  0.83880258  0.79517570    -0.39500
O1043       O  0.20085815  0.84288166  0.86579771    -0.39500
O1044       O  0.21497149  0.81116848  0.90047139    -0.37200
O1045       O  0.24218779  0.95334424  0.85920454    -0.38100
O1046       O  0.20864990  0.94496110  0.89280459    -0.34300
O1047       O  0.33282214  0.84967021  0.92305367    -0.35700
O1048       O  0.29806160  0.83489096  0.95250794    -0.39900
C1049       C  0.39924474  0.80281482  0.35727328    -0.13600
C1050       C  0.39051275  0.77467983  0.34778907     0.16700
C1051       C  0.40217673  0.74985172  0.36283357     0.03000
C1052       C  0.42284996  0.75333986  0.38626577    -0.12100
C1053       C  0.43273860  0.78135999  0.39527364    -0.03200
C1054       C  0.42007919  0.80643301  0.38087401     0.02300
C1055       C  0.37200148  0.77127090  0.31990664     0.09100
N1056       N  0.39445972  0.72075377  0.35343842     0.65500
H1057       H  0.43180148  0.73362404  0.39679766     0.18400
N1058       N  0.42851874  0.83562679  0.38910745     0.75900
H1059       H  0.39044437  0.82205992  0.34566578     0.09900
C1060       C  0.34199983  0.76684079  0.32181948     0.03600
C1061       C  0.32573809  0.76179968  0.29491616    -0.05100
C1062       C  0.33876448  0.76098652  0.26572111    -0.23500
C1063       C  0.36887611  0.76577041  0.26385772     0.12800
C1064       C  0.38511082  0.77092103  0.29087036    -0.12700
N1065       N  0.32768113  0.76725236  0.35086156     0.64500
H1066       H  0.30267173  0.75834264  0.29696209     0.12400
N1067       N  0.38370039  0.76339377  0.23518991     0.61200
H1068       H  0.40828632  0.77386700  0.28926482     0.08500
O1069       O  0.41319944  0.85019507  0.40776402    -0.40300
O1070       O  0.44615116  0.84902171  0.37227018    -0.39500
O1071       O  0.41212984  0.70565718  0.33784122    -0.39500
O1072       O  0.37411069  0.70794790  0.36695738    -0.37200
O1073       O  0.39029335  0.78652740  0.22096066    -0.38100
O1074       O  0.39626372  0.73947641  0.22842018    -0.34300
O1075       O  0.31535308  0.79068051  0.35963592    -0.35700
O1076       O  0.32086915  0.74318570  0.36314928    -0.39900
C1077       C  0.21390357  0.58882899  0.35472168    -0.13600
C1078       C  0.23630683  0.57903109  0.33556305     0.16700
C1079       C  0.25392595  0.55517960  0.34483004     0.03000
C1080       C  0.24904702  0.54178700  0.37321490    -0.12100
C1081       C  0.22659600  0.55157213  0.39226089    -0.03200
C1082       C  0.20905364  0.57546340  0.38303042     0.02300
C1083       C  0.24363870  0.59796420  0.30945708     0.09100
N1084       N  0.27676231  0.54437854  0.32581557     0.65500
H1085       H  0.26293853  0.52378947  0.38045884     0.18400
N1086       N  0.18858255  0.58848155  0.40359442     0.75900
H1087       H  0.20123925  0.60816841  0.34849740     0.09900
C1088       C  0.22299684  0.60378550  0.28618362     0.03600
C1089       C  0.22497151  0.62942653  0.26885895    -0.05100
C1090       C  0.24742447  0.64943234  0.27417078    -0.23500
C1091       C  0.26977938  0.64208345  0.29535213     0.12800
C1092       C  0.26762390  0.61639060  0.31285604    -0.12700
N1093       N  0.19885164  0.58485400  0.28134808     0.64500
H1094       H  0.20813966  0.63429267  0.25197916     0.12400
N1095       N  0.29308766  0.66172832  0.30173372     0.61200
H1096       H  0.28335180  0.61226725  0.33110747     0.08500
O1097       O  0.19686949  0.60808246  0.42233772    -0.40300
O1098       O  0.16187907  0.58503103  0.39871952    -0.39500
O1099       O  0.30265687  0.54885204  0.33388971    -0.39500
O1100       O  0.27136817  0.52448754  0.30623107    -0.37200
O1101       O  0.29255612  0.67723006  0.32596182    -0.38100
O1102       O  0.31671742  0.65812193  0.28785484    -0.34300
O1103       O  0.17421694  0.59275123  0.29073276    -0.35700
O1104       O  0.20078901  0.56426264  0.26183446    -0.39900
C1105       C  0.41242050  0.60385338  0.19069039    -0.13600
C1106       C  0.39364939  0.60138975  0.16526323     0.16700
C1107       C  0.39835123  0.57938494  0.14303466     0.03000
C1108       C  0.42134093  0.55956241  0.14702529    -0.12100
C1109       C  0.43978801  0.56140185  0.17298184    -0.03200
C1110       C  0.43545188  0.58416797  0.19472323     0.02300
C1111       C  0.36945175  0.62236076  0.16297621     0.09100
N1112       N  0.37938153  0.57622345  0.11702691     0.65500
H1113       H  0.42423472  0.54212921  0.13015880     0.18400
N1114       N  0.45466620  0.58829657  0.22038340     0.75900
H1115       H  0.40915406  0.62128201  0.20750800     0.09900
C1116       C  0.34761901  0.62200550  0.18517919     0.03600
C1117       C  0.32944633  0.64625215  0.18833042    -0.05100
C1118       C  0.33234553  0.67123022  0.16948696    -0.23500
C1119       C  0.35225574  0.67014418  0.14495873     0.12800
C1120       C  0.37091291  0.64580673  0.14214794    -0.12700
N1121       N  0.34450035  0.59771427  0.20572748     0.64500
H1122       H  0.31379111  0.64575460  0.20675259     0.12400
N1123       N  0.35386088  0.69326425  0.12281081     0.61200
H1124       H  0.38749552  0.64587222  0.12466006     0.08500
O1125       O  0.44651613  0.58122598  0.24702287    -0.40300
O1126       O  0.47568384  0.60559316  0.21767074    -0.39500
O1127       O  0.38568156  0.58832836  0.09185004    -0.39500
O1128       O  0.36021141  0.55663588  0.11731160    -0.37200
O1129       O  0.34117867  0.69024776  0.09707511    -0.38100
O1130       O  0.37296476  0.71274273  0.12589754    -0.34300
O1131       O  0.35271301  0.60032894  0.23346079    -0.35700
O1132       O  0.32728819  0.57735819  0.19850956    -0.39900
C1133       C  0.24657969  0.88268461  0.12527375    -0.13600
C1134       C  0.27214407  0.88903052  0.10982015     0.16700
C1135       C  0.29738006  0.87252511  0.11606013     0.03000
C1136       C  0.29642246  0.84913910  0.13664398    -0.12100
C1137       C  0.27054526  0.84165409  0.15116877    -0.03200
C1138       C  0.24548170  0.85923212  0.14593763     0.02300
C1139       C  0.27199475  0.91237274  0.08653629     0.09100
N1140       N  0.32371096  0.87808067  0.10023714     0.65500
H1141       H  0.31583732  0.83595198  0.14009107     0.18400
N1142       N  0.21903384  0.85427275  0.16181947     0.75900
H1143       H  0.22733258  0.89597735  0.12114417     0.09900
C1144       C  0.25386531  0.91060348  0.06031871     0.03600
C1145       C  0.25540719  0.93212253  0.03768690    -0.05100
C1146       C  0.27514591  0.95516324  0.04045734    -0.23500
C1147       C  0.29245354  0.95765540  0.06726683     0.12800
C1148       C  0.29053072  0.93635279  0.09026839    -0.12700
N1149       N  0.23512813  0.88614768  0.05540698     0.64500
H1150       H  0.24216356  0.92991956  0.01701062     0.12400
N1151       N  0.31102577  0.98216115  0.07218335     0.61200
H1152       H  0.30380820  0.93830270  0.11093039     0.08500
O1153       O  0.19645977  0.84852069  0.14641311    -0.40300
O1154       O  0.21650935  0.86394227  0.18898223    -0.39500
O1155       O  0.34411310  0.89082288  0.11431332    -0.39500
O1156       O  0.32874918  0.86479883  0.07521218    -0.37200
O1157       O  0.30314952  0.00210209  0.09072459    -0.38100
O1158       O  0.33749160  0.97954441  0.06579896    -0.34300
O1159       O  0.20808855  0.89015001  0.05577481    -0.35700
O1160       O  0.24527161  0.86257119  0.04424235    -0.39900
C1161       C  0.15679056  0.73379712  0.10297556    -0.13600
C1162       C  0.13787219  0.71030061  0.10719645     0.16700
C1163       C  0.14067615  0.69283541  0.13373437     0.03000
C1164       C  0.16142368  0.69979175  0.15621064    -0.12100
C1165       C  0.17970191  0.72422151  0.15299644    -0.03200
C1166       C  0.17770176  0.74084153  0.12540615     0.02300
C1167       C  0.11504279  0.70481873  0.08383719     0.09100
N1168       N  0.12170100  0.66878015  0.13894598     0.65500
H1169       H  0.16238328  0.68642347  0.17685343     0.18400
N1170       N  0.19615308  0.76523871  0.11982349     0.75900
H1171       H  0.15498897  0.74707303  0.08229129     0.09900
C1172       C  0.09092315  0.72379318  0.08131230     0.03600
C1173       C  0.07079567  0.71974983  0.05749496    -0.05100
C1174       C  0.07407021  0.69689359  0.03589448    -0.23500
C1175       C  0.09809832  0.67760095  0.03860075     0.12800
C1176       C  0.11831678  0.68166255  0.06262058    -0.12700
N1177       N  0.08641141  0.74713850  0.10296891     0.64500
H1178       H  0.05236556  0.73462877  0.05595183     0.12400
N1179       N  0.10345601  0.65527371  0.01601836     0.61200
H1180       H  0.13712936  0.66730157  0.06413951     0.08500
O1181       O  0.18749721  0.79074751  0.12696803    -0.40300
O1182       O  0.21638487  0.76238371  0.10069112    -0.39500
O1183       O  0.13077148  0.64283203  0.13454122    -0.39500
O1184       O  0.09928617  0.67295411  0.15479282    -0.37200
O1185       O  0.11887245  0.66119634  0.99303806    -0.38100
O1186       O  0.09889279  0.62870551  0.02264592    -0.34300
O1187       O  0.09199914  0.77322544  0.09527630    -0.35700
O1188       O  0.07069638  0.74270820  0.12608904    -0.39900
C1189       C  0.77486460  0.64774810  0.32328541    -0.13600
C1190       C  0.77892383  0.61773298  0.31660173     0.16700
C1191       C  0.77787827  0.60832997  0.28562415     0.03000
C1192       C  0.77286724  0.62881498  0.26209851    -0.12100
C1193       C  0.76849303  0.65895126  0.26851524    -0.03200
C1194       C  0.76981870  0.66837284  0.29966851     0.02300
C1195       C  0.78150499  0.59631425  0.34232344     0.09100
N1196       N  0.78007228  0.57782748  0.27766615     0.65500
H1197       H  0.77136181  0.62069678  0.23859354     0.18400
N1198       N  0.76670246  0.69871557  0.30783626     0.75900
H1199       H  0.77547795  0.65519458  0.34707552     0.09900
C1200       C  0.80710835  0.58013604  0.34841772     0.03600
C1201       C  0.80780770  0.55924318  0.37218702    -0.05100
C1202       C  0.78334901  0.55392604  0.39031009    -0.23500
C1203       C  0.75795582  0.57091293  0.38460810     0.12800
C1204       C  0.75734217  0.59174435  0.36083418    -0.12700
N1205       N  0.83280498  0.58502851  0.33122505     0.64500
H1206       H  0.82765116  0.54690131  0.37620147     0.12400
N1207       N  0.73257912  0.56763916  0.40275804     0.61200
H1208       H  0.73763670  0.60426959  0.35654546     0.08500
O1209       O  0.78884969  0.71471394  0.30885392    -0.40300
O1210       O  0.74413802  0.70722209  0.32143364    -0.39500
O1211       O  0.75774846  0.56210762  0.27874287    -0.39500
O1212       O  0.80142357  0.56892385  0.26219561    -0.37200
O1213       O  0.72872185  0.58443084  0.42564470    -0.38100
O1214       O  0.71141479  0.55356832  0.39176155    -0.34300
O1215       O  0.85051939  0.60405061  0.34078394    -0.35700
O1216       O  0.84139426  0.56543402  0.31265845    -0.39900
C1217       C  0.59570629  0.79967953  0.35601949    -0.13600
C1218       C  0.59134692  0.77780249  0.33359317     0.16700
C1219       C  0.56764908  0.75877575  0.33586154     0.03000
C1220       C  0.54901454  0.76149352  0.36074514    -0.12100
C1221       C  0.55368908  0.78287379  0.38359947    -0.03200
C1222       C  0.57709569  0.80235968  0.38106050     0.02300
C1223       C  0.61404705  0.77258256  0.31075569     0.09100
N1224       N  0.56243255  0.73639919  0.31327523     0.65500
H1225       H  0.53091975  0.74658241  0.36236637     0.18400
N1226       N  0.58369558  0.82318293  0.40487399     0.75900
H1227       H  0.61450163  0.81371378  0.35492203     0.09900
C1228       C  0.62137094  0.79407748  0.28908830     0.03600
C1229       C  0.64559153  0.78985209  0.27061392    -0.05100
C1230       C  0.66294861  0.76438537  0.27342533    -0.23500
C1231       C  0.65489398  0.74241850  0.29480315     0.12800
C1232       C  0.63066798  0.74685324  0.31319874    -0.12700
N1233       N  0.60442010  0.82032034  0.28563211     0.64500
H1234       H  0.65096378  0.80688629  0.25426282     0.12400
N1235       N  0.67169526  0.71625595  0.29966433     0.61200
H1236       H  0.62542163  0.73051312  0.33038925     0.08500
O1237       O  0.57867330  0.85018260  0.40032777    -0.40300
O1238       O  0.60012553  0.81557285  0.42694237    -0.39500
O1239       O  0.56919327  0.71004891  0.31933743    -0.39500
O1240       O  0.54518274  0.74170119  0.29119270    -0.37200
O1241       O  0.68565733  0.71359588  0.32468181    -0.38100
O1242       O  0.66534674  0.69335878  0.28455798    -0.34300
O1243       O  0.61313209  0.84398382  0.29774244    -0.35700
O1244       O  0.58471091  0.82123379  0.26528952    -0.39900
C1245       C  0.65228852  0.61323111  0.16881125    -0.13600
C1246       C  0.62669261  0.62243308  0.18304767     0.16700
C1247       C  0.62579664  0.64997759  0.19791181     0.03000
C1248       C  0.65040221  0.66779261  0.19843719    -0.12100
C1249       C  0.67653595  0.65850627  0.18480387    -0.03200
C1250       C  0.67721160  0.63063340  0.16987306     0.02300
C1251       C  0.60235523  0.60151346  0.18461196     0.09100
N1252       N  0.60021294  0.65994880  0.21307278     0.65500
H1253       H  0.64904946  0.68889238  0.21011316     0.18400
N1254       N  0.70335151  0.61854463  0.15762162     0.75900
H1255       H  0.65331894  0.59168237  0.15800044     0.09900
C1256       C  0.58361506  0.59707900  0.15927967     0.03600
C1257       C  0.56369914  0.57400599  0.15970046    -0.05100
C1258       C  0.56139841  0.55557074  0.18555217    -0.23500
C1259       C  0.57943614  0.56096130  0.21152360     0.12800
C1260       C  0.59989067  0.58355948  0.21065700    -0.12700
N1261       N  0.58392288  0.61647542  0.13342555     0.64500
H1262       H  0.54942402  0.57101981  0.13995994     0.12400
N1263       N  0.57792409  0.54323866  0.23861704     0.61200
H1264       H  0.61435611  0.58674651  0.23021135     0.08500
O1265       O  0.70503686  0.61373336  0.12899389    -0.40300
O1266       O  0.72120869  0.60610865  0.17567035    -0.39500
O1267       O  0.59917011  0.65932174  0.24214819    -0.39500
O1268       O  0.58166115  0.67489263  0.19820980    -0.37200
O1269       O  0.59385510  0.52063626  0.24100165    -0.38100
O1270       O  0.56563461  0.55341302  0.26228744    -0.34300
O1271       O  0.59399206  0.60756731  0.10807531    -0.35700
O1272       O  0.56902254  0.63988719  0.13416961    -0.39900
C1273       C  0.88325677  0.73043625  0.11666663    -0.13600
C1274       C  0.88231875  0.70580924  0.09709973     0.16700
C1275       C  0.86100773  0.68430472  0.10141074     0.03000
C1276       C  0.84082955  0.68791425  0.12479756    -0.12100
C1277       C  0.84092760  0.71314187  0.14348262    -0.03200
C1278       C  0.86259852  0.73445931  0.13959897     0.02300
C1279       C  0.90479220  0.70218489  0.07353120     0.09100
N1280       N  0.85831363  0.65973638  0.08094262     0.65500
H1281       H  0.82398170  0.67165526  0.12716807     0.18400
N1282       N  0.86439833  0.75984179  0.15913191     0.75900
H1283       H  0.90015726  0.74659935  0.11414329     0.09900
C1284       C  0.90910428  0.72373503  0.05082415     0.03600
C1285       C  0.93190548  0.72053952  0.03027483    -0.05100
C1286       C  0.95087459  0.69624353  0.03193584    -0.23500
C1287       C  0.94676842  0.67486929  0.05502319     0.12800
C1288       C  0.92369414  0.67794929  0.07543371    -0.12700
N1289       N  0.89038150  0.74884686  0.04810490     0.64500
H1290       H  0.93460404  0.73718001  0.01269805     0.12400
N1291       N  0.96689307  0.65121105  0.05964287     0.61200
H1292       H  0.92113009  0.66186202  0.09359214     0.08500
O1293       O  0.85376200  0.78398879  0.14993913    -0.40300
O1294       O  0.88233682  0.75986423  0.18128157    -0.39500
O1295       O  0.86547362  0.63440643  0.09032836    -0.39500
O1296       O  0.84219147  0.66213055  0.05738842    -0.37200
O1297       O  0.98642404  0.65386591  0.08000887    -0.38100
O1298       O  0.96056184  0.62584402  0.04989012    -0.34300
O1299       O  0.89958064  0.77384531  0.05610604    -0.35700
O1300       O  0.86802912  0.74721802  0.03125145    -0.39900
C1301       C  0.75812461  0.83835766  0.08971929    -0.13600
C1302       C  0.74368950  0.86545758  0.09354105     0.16700
C1303       C  0.72869151  0.87041699  0.12140977     0.03000
C1304       C  0.72835284  0.84867317  0.14432114    -0.12100
C1305       C  0.74323121  0.82171104  0.14087671    -0.03200
C1306       C  0.75841046  0.81681219  0.11298396     0.02300
C1307       C  0.74246417  0.88719595  0.06750327     0.09100
N1308       N  0.71448466  0.89788841  0.12748873     0.65500
H1309       H  0.71717341  0.85361054  0.16559691     0.18400
N1310       N  0.77394353  0.78999983  0.10744404     0.75900
H1311       H  0.76877395  0.83343747  0.06817288     0.09900
C1312       C  0.76741715  0.89685967  0.05194955     0.03600
C1313       C  0.76479389  0.91730158  0.02780953    -0.05100
C1314       C  0.73769204  0.92837845  0.01793359    -0.23500
C1315       C  0.71271653  0.91781055  0.03274899     0.12800
C1316       C  0.71536550  0.89761951  0.05711731    -0.12700
N1317       N  0.79571876  0.88649278  0.06031363     0.64500
H1318       H  0.78438255  0.92452468  0.01674243     0.12400
N1319       N  0.68435093  0.92683856  0.02321873     0.61200
H1320       H  0.69584500  0.88951245  0.06758924     0.08500
O1321       O  0.80123749  0.79024003  0.10774023    -0.40300
O1322       O  0.76102935  0.76884055  0.09455157    -0.39500
O1323       O  0.68720199  0.89907177  0.12696631    -0.39500
O1324       O  0.72831999  0.91798004  0.14117426    -0.37200
O1325       O  0.67068467  0.91128476  0.00389003    -0.38100
O1326       O  0.67072287  0.94551065  0.03922553    -0.34300
O1327       O  0.80723569  0.86639481  0.04427990    -0.35700
O1328       O  0.81177707  0.90279182  0.07659367    -0.39900
C1329       C  0.58919432  0.24545387  0.35527833    -0.13600
C1330       C  0.59151073  0.21925828  0.33809470     0.16700
C1331       C  0.57382107  0.19534854  0.34611625     0.03000
C1332       C  0.55464458  0.19793090  0.37086484    -0.12100
C1333       C  0.55221397  0.22412850  0.38809295    -0.03200
C1334       C  0.56981992  0.24818701  0.37988321     0.02300
C1335       C  0.61460861  0.21653986  0.31433803     0.09100
N1336       N  0.57448857  0.16843694  0.32893687     0.65500
H1337       H  0.54120236  0.17927254  0.37628601     0.18400
N1338       N  0.56947130  0.27511901  0.39703971     0.75900
H1339       H  0.60322759  0.26375187  0.35022194     0.09900
C1340       C  0.61880252  0.23850707  0.29185583     0.03600
C1341       C  0.64385242  0.23807167  0.27396292    -0.05100
C1342       C  0.66447820  0.21526606  0.27656869    -0.23500
C1343       C  0.65942401  0.19233043  0.29767584     0.12800
C1344       C  0.63504586  0.19351500  0.31668522    -0.12700
N1345       N  0.59764061  0.26114107  0.28647659     0.64500
H1346       H  0.64711908  0.25575427  0.25773031     0.12400
N1347       N  0.67970204  0.16871984  0.30172715     0.61200
H1348       H  0.63289189  0.17697553  0.33440160     0.08500
O1349       O  0.55386350  0.29624926  0.38761046    -0.40300
O1350       O  0.58978644  0.28022734  0.41593749    -0.39500
O1351       O  0.58641768  0.14596193  0.34068601    -0.39500
O1352       O  0.55729837  0.16527868  0.30638599    -0.37200
O1353       O  0.69988781  0.17137627  0.32133605    -0.38100
O1354       O  0.67333536  0.14341293  0.29180769    -0.34300
O1355       O  0.60445747  0.28776144  0.29031079    -0.35700
O1356       O  0.57505203  0.25508708  0.27122125    -0.39900
C1357       C  0.75394757  0.39605332  0.35086768    -0.13600
C1358       C  0.77863109  0.37900692  0.34437984     0.16700
C1359       C  0.80489058  0.38618386  0.35947651     0.03000
C1360       C  0.80579533  0.40950413  0.38085393    -0.12100
C1361       C  0.78099670  0.42639987  0.38772158    -0.03200
C1362       C  0.75483035  0.41951297  0.37204956     0.02300
C1363       C  0.77673108  0.35607762  0.31956558     0.09100
N1364       N  0.83078405  0.36965782  0.35401174     0.65500
H1365       H  0.82615089  0.41413122  0.39242060     0.18400
N1366       N  0.72920849  0.43688575  0.37599664     0.75900
H1367       H  0.73389995  0.39178338  0.33854296     0.09900
C1368       C  0.75602635  0.33341616  0.32029849     0.03600
C1369       C  0.75123034  0.31568137  0.29419906    -0.05100
C1370       C  0.76661214  0.31976639  0.26669918    -0.23500
C1371       C  0.78869609  0.34131637  0.26672548     0.12800
C1372       C  0.79334684  0.35914864  0.29288667    -0.12700
N1373       N  0.73944808  0.32810012  0.34732034     0.64500
H1374       H  0.73459913  0.29908640  0.29537835     0.12400
N1375       N  0.80625810  0.34610309  0.24031824     0.61200
H1376       H  0.80917223  0.37653282  0.29170273     0.08500
O1377       O  0.70917335  0.42715733  0.39254994    -0.40300
O1378       O  0.72359725  0.45718080  0.35697828    -0.39500
O1379       O  0.84969981  0.38022505  0.33655070    -0.39500
O1380       O  0.83802795  0.34962723  0.37273276    -0.37200
O1381       O  0.79940720  0.36643555  0.22179132    -0.38100
O1382       O  0.83176904  0.33597568  0.24021203    -0.34300
O1383       O  0.71361544  0.33724667  0.34826156    -0.35700
O1384       O  0.74743606  0.30781014  0.36539983    -0.39900
C1385       C  0.58817065  0.39677372  0.21903015    -0.13600
C1386       C  0.59426380  0.38146073  0.19168098     0.16700
C1387       C  0.57730406  0.38692865  0.16514814     0.03000
C1388       C  0.55648250  0.40937230  0.16555975    -0.12100
C1389       C  0.55165003  0.42630045  0.19230181    -0.03200
C1390       C  0.56673766  0.41874175  0.21973720     0.02300
C1391       C  0.61921608  0.36093246  0.19101792     0.09100
N1392       N  0.58159797  0.37063523  0.13727897     0.65500
H1393       H  0.54440850  0.41387682  0.14450120     0.18400
N1394       N  0.56100808  0.43326016  0.24834706     0.75900
H1395       H  0.60044508  0.39189877  0.23987071     0.09900
C1396       C  0.64751625  0.37139067  0.19552835     0.03600
C1397       C  0.67084828  0.35174378  0.19531503    -0.05100
C1398       C  0.66671946  0.32143595  0.19096888    -0.23500
C1399       C  0.63826103  0.31086838  0.18650818     0.12800
C1400       C  0.61482571  0.33073264  0.18641022    -0.12700
N1401       N  0.65299602  0.40203263  0.19999785     0.64500
H1402       H  0.69241587  0.36033637  0.19898239     0.12400
N1403       N  0.63275317  0.28038949  0.18096449     0.61200
H1404       H  0.59308613  0.32252256  0.18299560     0.08500
O1405       O  0.57741744  0.45364248  0.25743142    -0.40300
O1406       O  0.54430553  0.42132640  0.26734621    -0.39500
O1407       O  0.56418621  0.35039167  0.13024546    -0.39500
O1408       O  0.59772683  0.38096006  0.11674595    -0.37200
O1409       O  0.62601877  0.26420834  0.20330763    -0.38100
O1410       O  0.62683177  0.27197754  0.15386028    -0.34300
O1411       O  0.65806619  0.41155728  0.22688953    -0.35700
O1412       O  0.65962347  0.41758042  0.17711239    -0.39900
C1413       C  0.72758436  0.10859703  0.12352101    -0.13600
C1414       C  0.73979908  0.11616571  0.09513395     0.16700
C1415       C  0.75129420  0.14464137  0.09192022     0.03000
C1416       C  0.75112986  0.16442407  0.11689467    -0.12100
C1417       C  0.73986020  0.15676092  0.14583242    -0.03200
C1418       C  0.72754802  0.12832671  0.14873327     0.02300
C1419       C  0.73918487  0.09449903  0.06896487     0.09100
N1420       N  0.76283301  0.15423995  0.06327200     0.65500
H1421       H  0.76050652  0.18593317  0.11352494     0.18400
N1422       N  0.71533856  0.11867249  0.17706875     0.75900
H1423       H  0.71828073  0.08695912  0.12628105     0.09900
C1424       C  0.76450306  0.08073096  0.05775270     0.03600
C1425       C  0.76283505  0.06072035  0.03293955    -0.05100
C1426       C  0.73614959  0.05289574  0.01930125    -0.23500
C1427       C  0.71068278  0.06596932  0.03149550     0.12800
C1428       C  0.71250841  0.08668062  0.05570398    -0.12700
N1429       N  0.79182598  0.08496291  0.07277343     0.64500
H1430       H  0.78269524  0.05051336  0.02501270     0.12400
N1431       N  0.68263973  0.05805710  0.02031582     0.61200
H1432       H  0.69278971  0.09653212  0.06449142     0.08500
O1433       O  0.72987877  0.10161832  0.19429057    -0.40300
O1434       O  0.68833249  0.12063405  0.18061919    -0.39500
O1435       O  0.74647212  0.16800385  0.04471246    -0.39500
O1436       O  0.78985199  0.15697611  0.06094643    -0.37200
O1437       O  0.66833022  0.03921181  0.03489071    -0.38100
O1438       O  0.66974003  0.07464254  0.00124585    -0.34300
O1439       O  0.79852305  0.06886186  0.09547127    -0.35700
O1440       O  0.81159556  0.09813458  0.05867587    -0.39900
C1441       C  0.86819076  0.29566123  0.10083772    -0.13600
C1442       C  0.87313958  0.27177463  0.08097530     0.16700
C1443       C  0.85542494  0.24679050  0.08301731     0.03000
C1444       C  0.83372581  0.24581787  0.10518073    -0.12100
C1445       C  0.82889866  0.26950786  0.12548523    -0.03200
C1446       C  0.84626196  0.29489554  0.12285443     0.02300
C1447       C  0.89846759  0.27248892  0.06036694     0.09100
N1448       N  0.85848170  0.22258701  0.06212311     0.65500
H1449       H  0.82030524  0.22640666  0.10616739     0.18400
N1450       N  0.84282712  0.31967255  0.14294911     0.75900
H1451       H  0.88201375  0.31477048  0.09984687     0.09900
C1452       C  0.90145020  0.29445522  0.03774832     0.03600
C1453       C  0.92678969  0.29583535  0.02049667    -0.05100
C1454       C  0.94943139  0.27554363  0.02518701    -0.23500
C1455       C  0.94672379  0.25391408  0.04833673     0.12800
C1456       C  0.92129948  0.25252634  0.06554565    -0.12700
N1457       N  0.87853478  0.31485769  0.03118036     0.64500
H1458       H  0.92833054  0.31231466  0.00257329     0.12400
N1459       N  0.97013450  0.23440789  0.05600750     0.61200
H1460       H  0.91973046  0.23632098  0.08373679     0.08500
O1461       O  0.83072693  0.34272422  0.13272349    -0.40300
O1462       O  0.85824782  0.32125640  0.16709002    -0.39500
O1463       O  0.87214998  0.19987172  0.07083751    -0.39500
O1464       O  0.84125655  0.22070604  0.03942884    -0.37200
O1465       O  0.98869362  0.24252211  0.07576735    -0.38100
O1466       O  0.96798071  0.20736485  0.04970307    -0.34300
O1467       O  0.88015190  0.34080502  0.04152049    -0.35700
O1468       O  0.86128322  0.30944640  0.00916851    -0.39900
C1469       C  0.23975861  0.34231020  0.35682773    -0.13600
C1470       C  0.21911734  0.36502447  0.35501464     0.16700
C1471       C  0.20133697  0.36758056  0.32853319     0.03000
C1472       C  0.20386236  0.34690398  0.30481040    -0.12100
C1473       C  0.22466576  0.32433327  0.30642863    -0.03200
C1474       C  0.24287257  0.32210502  0.33268184     0.02300
C1475       C  0.21909486  0.38778423  0.37922768     0.09100
N1476       N  0.18238452  0.39228207  0.32417256     0.65500
H1477       H  0.19026213  0.34923040  0.28441111     0.18400
N1478       N  0.26416601  0.29922194  0.33550001     0.75900
H1479       H  0.25384390  0.34059218  0.37691703     0.09900
C1480       C  0.19581103  0.39180869  0.39952332     0.03600
C1481       C  0.19623748  0.41524349  0.42054349    -0.05100
C1482       C  0.21973655  0.43457861  0.42190929    -0.23500
C1483       C  0.24365669  0.42949330  0.40249175     0.12800
C1484       C  0.24305190  0.40623159  0.38140468    -0.12700
N1485       N  0.17190696  0.37209888  0.39947522     0.64500
H1486       H  0.17796008  0.41851997  0.43567585     0.12400
N1487       N  0.26751540  0.44918456  0.40164755     0.61200
H1488       H  0.26101981  0.40318232  0.36578918     0.08500
O1489       O  0.25717685  0.27488243  0.34707142    -0.40300
O1490       O  0.29059354  0.30553574  0.33339851    -0.39500
O1491       O  0.19215368  0.41522082  0.31185115    -0.39500
O1492       O  0.15541041  0.38834864  0.32424381    -0.37200
O1493       O  0.26737085  0.46916515  0.38152635    -0.38100
O1494       O  0.29132806  0.44127695  0.41362027    -0.34300
O1495       O  0.17295388  0.34978424  0.41672298    -0.35700
O1496       O  0.14771171  0.38082996  0.38914232    -0.39900
C1497       C  0.37716491  0.21737329  0.28584079    -0.13600
C1498       C  0.36729982  0.22089137  0.31610651     0.16700
C1499       C  0.33816952  0.22838142  0.32122595     0.03000
C1500       C  0.31989868  0.23386885  0.29621182    -0.12100
C1501       C  0.33007009  0.23271951  0.26573663    -0.03200
C1502       C  0.35884525  0.22312705  0.26058263     0.02300
C1503       C  0.38849358  0.22137707  0.34162102     0.09100
N1504       N  0.32696064  0.23163669  0.35169957     0.65500
H1505       H  0.29778339  0.24037456  0.30102395     0.18400
N1506       N  0.37033174  0.22046897  0.23021066     0.75900
H1507       H  0.39964643  0.21176403  0.28179504     0.09900
C1508       C  0.40445729  0.19626970  0.35048848     0.03600
C1509       C  0.42512564  0.19850576  0.37410401    -0.05100
C1510       C  0.43057130  0.22560540  0.38888256    -0.23500
C1511       C  0.41454594  0.25077177  0.37960057     0.12800
C1512       C  0.39387202  0.24839022  0.35609712    -0.12700
N1513       N  0.40013443  0.16847161  0.33566160     0.64500
H1514       H  0.43725217  0.17889475  0.38051802     0.12400
N1515       N  0.41871050  0.27891441  0.39369183     0.61200
H1516       H  0.38215722  0.26797755  0.34875586     0.08500
O1517       O  0.36943175  0.19585515  0.21664407    -0.40300
O1518       O  0.38719156  0.23996644  0.22047359    -0.39500
O1519       O  0.32796268  0.25651486  0.36471496    -0.39500
O1520       O  0.30933583  0.21284342  0.36139088    -0.37200
O1521       O  0.43300522  0.29811665  0.37962473    -0.38100
O1522       O  0.40235119  0.28683083  0.41538047    -0.34300
O1523       O  0.41638698  0.16099010  0.31371795    -0.35700
O1524       O  0.38557194  0.14905112  0.34906642    -0.39900
C1525       C  0.34838821  0.37621672  0.21897423    -0.13600
C1526       C  0.35293484  0.38808940  0.18954567     0.16700
C1527       C  0.33701863  0.37678346  0.16416328     0.03000
C1528       C  0.31855449  0.35294940  0.16835467    -0.12100
C1529       C  0.31483348  0.34063803  0.19761460    -0.03200
C1530       C  0.32905932  0.35314262  0.22330596     0.02300
C1531       C  0.37723000  0.40887231  0.18542071     0.09100
N1532       N  0.33958751  0.38889107  0.13392503     0.65500
H1533       H  0.30746660  0.34360308  0.14849324     0.18400
N1534       N  0.32607631  0.34102637  0.25348776     0.75900
H1535       H  0.36111659  0.38366585  0.23853517     0.09900
C1536       C  0.38076282  0.43396114  0.20441942     0.03600
C1537       C  0.40606135  0.45043906  0.20266798    -0.05100
C1538       C  0.42823230  0.44264630  0.18227141    -0.23500
C1539       C  0.42454973  0.41797234  0.16280278     0.12800
C1540       C  0.39931387  0.40127555  0.16473444    -0.12700
N1541       N  0.35904089  0.44307110  0.22575824     0.64500
H1542       H  0.40836188  0.46957938  0.21748913     0.12400
N1543       N  0.44699112  0.40815576  0.14271385     0.61200
H1544       H  0.39767962  0.38136708  0.15102439     0.08500
O1545       O  0.30661627  0.35096606  0.27098074    -0.40300
O1546       O  0.34620169  0.32531941  0.26472833    -0.39500
O1547       O  0.35337094  0.37463396  0.11370653    -0.39500
O1548       O  0.32180555  0.40854923  0.12539197    -0.37200
O1549       O  0.46408504  0.38806549  0.15174030    -0.38100
O1550       O  0.44487071  0.41355713  0.11423556    -0.34300
O1551       O  0.36272792  0.43758248  0.25406666    -0.35700
O1552       O  0.34165424  0.46337673  0.21802396    -0.39900
C1553       C  0.11140837  0.29798888  0.06243542    -0.13600
C1554       C  0.11173360  0.27320289  0.08149951     0.16700
C1555       C  0.09291526  0.24978485  0.07519520     0.03000
C1556       C  0.07435225  0.25123024  0.04968591    -0.12100
C1557       C  0.07345683  0.27615700  0.03061787    -0.03200
C1558       C  0.09221296  0.29989127  0.03728220     0.02300
C1559       C  0.13122234  0.27245971  0.10847349     0.09100
N1560       N  0.09159856  0.22487208  0.09514533     0.65500
H1561       H  0.05975787  0.23307277  0.04550439     0.18400
N1562       N  0.09226924  0.32594511  0.01889959     0.75900
H1563       H  0.12584398  0.31611621  0.06739842     0.09900
C1564       C  0.15982346  0.26218106  0.10598390     0.03600
C1565       C  0.17739154  0.26087124  0.13221647    -0.05100
C1566       C  0.16671790  0.26851156  0.16152104    -0.23500
C1567       C  0.13825422  0.27993628  0.16371799     0.12800
C1568       C  0.12085640  0.28193173  0.13712303    -0.12700
N1569       N  0.17083024  0.25117349  0.07744566     0.64500
H1570       H  0.19920780  0.25229985  0.12969707     0.12400
N1571       N  0.12605387  0.28808449  0.19268760     0.61200
H1572       H  0.09882586  0.29007466  0.13897079     0.08500
O1573       O  0.10962842  0.32761489  0.99671682    -0.40300
O1574       O  0.08110803  0.34927770  0.02954131    -0.39500
O1575       O  0.07587581  0.22626063  0.11873959    -0.39500
O1576       O  0.09995278  0.20002179  0.08542516    -0.37200
O1577       O  0.12582615  0.31485754  0.20057658    -0.38100
O1578       O  0.10924383  0.27048823  0.20584635    -0.34300
O1579       O  0.18906306  0.26618445  0.06301072    -0.35700
O1580       O  0.16871747  0.22403925  0.07154521    -0.39900
C1581       C  0.29192095  0.16899125  0.07881816    -0.13600
C1582       C  0.27538005  0.14349182  0.07708086     0.16700
C1583       C  0.25618084  0.13661840  0.10094823     0.03000
C1584       C  0.25358106  0.15563388  0.12616307    -0.12100
C1585       C  0.27063160  0.18090703  0.12835670    -0.03200
C1586       C  0.28988970  0.18765919  0.10432311     0.02300
C1587       C  0.28111298  0.12252117  0.05217744     0.09100
N1588       N  0.24072021  0.10951592  0.10089385     0.65500
H1589       H  0.23897001  0.15007621  0.14461211     0.18400
N1590       N  0.30723398  0.21353152  0.10517836     0.75900
H1591       H  0.30699064  0.17402296  0.06061791     0.09900
C1592       C  0.26274216  0.12032033  0.02630503     0.03600
C1593       C  0.26715976  0.09767202  0.00517177    -0.05100
C1594       C  0.28963596  0.07707899  0.00945302    -0.23500
C1595       C  0.30996246  0.08133527  0.03358529     0.12800
C1596       C  0.30527468  0.10390414  0.05496729    -0.12700
N1597       N  0.23913947  0.14034488  0.02149797     0.64500
H1598       H  0.25197234  0.09531385  0.98610029     0.12400
N1599       N  0.33431057  0.06214265  0.03796663     0.61200
H1600       H  0.31997971  0.10628907  0.07445985     0.08500
O1601       O  0.29873429  0.23608818  0.09065289    -0.40300
O1602       O  0.33350271  0.21133853  0.11312191    -0.39500
O1603       O  0.25026157  0.08828863  0.11684519    -0.39500
O1604       O  0.21486793  0.10913096  0.09131550    -0.37200
O1605       O  0.35798965  0.06867665  0.02563873    -0.38100
O1606       O  0.33459706  0.04481408  0.06062012    -0.34300
O1607       O  0.24181456  0.16070898  0.00203853    -0.35700
O1608       O  0.21408986  0.13277493  0.02932375    -0.39900
C1609       C  0.09704860  0.89477602  0.26186232    -0.13600
C1610       C  0.11094880  0.88722672  0.23454976     0.16700
C1611       C  0.10235614  0.90023066  0.20658393     0.03000
C1612       C  0.07961438  0.92072418  0.20628303    -0.12100
C1613       C  0.06517375  0.92839010  0.23370653    -0.03200
C1614       C  0.07417886  0.91499985  0.26175499     0.02300
C1615       C  0.13171682  0.86281914  0.23509052     0.09100
N1616       N  0.11620603  0.89222225  0.17836571     0.65500
H1617       H  0.07337974  0.93071332  0.18451548     0.18400
N1618       N  0.05963827  0.92044829  0.29014819     0.75900
H1619       H  0.10330538  0.88403257  0.28325288     0.09900
C1620       C  0.16074292  0.86708859  0.24354015     0.03600
C1621       C  0.17965658  0.84306117  0.24412100    -0.05100
C1622       C  0.17002520  0.81477570  0.23614292    -0.23500
C1623       C  0.14063347  0.81052785  0.22829197     0.12800
C1624       C  0.12175635  0.83462714  0.22785975    -0.12700
N1625       N  0.17137962  0.89569852  0.25101655     0.64500
H1626       H  0.20212861  0.84665095  0.25032510     0.12400
N1627       N  0.12986820  0.78233121  0.21930799     0.61200
H1628       H  0.09924946  0.83142525  0.22152359     0.08500
O1629       O  0.07226096  0.93506581  0.31103847    -0.40300
O1630       O  0.03851703  0.90450318  0.29717551    -0.39500
O1631       O  0.10530770  0.87248782  0.16141880    -0.39500
O1632       O  0.14154397  0.90090896  0.17321552    -0.37200
O1633       O  0.11611323  0.76727396  0.23856504    -0.38100
O1634       O  0.12833757  0.77572353  0.19102770    -0.34300
O1635       O  0.17434864  0.90303424  0.27897055    -0.35700
O1636       O  0.18362625  0.91058759  0.23048153    -0.39900
C1637       C  0.91247993  0.89330497  0.25425822    -0.13600
C1638       C  0.89502651  0.89175788  0.22760803     0.16700
C1639       C  0.89951112  0.91199448  0.20362053     0.03000
C1640       C  0.92165684  0.93261727  0.20616243    -0.12100
C1641       C  0.93950427  0.93410586  0.23256415    -0.03200
C1642       C  0.93436863  0.91444381  0.25712493     0.02300
C1643       C  0.87102378  0.87029292  0.22610340     0.09100
N1644       N  0.88207520  0.91162825  0.17621028     0.65500
H1645       H  0.92482743  0.94767864  0.18717920     0.18400
N1646       N  0.95130026  0.91521272  0.28487356     0.75900
H1647       H  0.90879278  0.87827988  0.27315621     0.09900
C1648       C  0.87614816  0.83966042  0.22609817     0.03600
C1649       C  0.85281542  0.82017719  0.22575983    -0.05100
C1650       C  0.82404416  0.83054067  0.22518697    -0.23500
C1651       C  0.81905331  0.86141332  0.22514202     0.12800
C1652       C  0.84245360  0.88079568  0.22570460    -0.12700
N1653       N  0.90490999  0.82796044  0.22515820     0.64500
H1654       H  0.85734414  0.79673490  0.22564629     0.12400
N1655       N  0.79048944  0.87365466  0.22364758     0.61200
H1656       H  0.83825410  0.90431584  0.22591539     0.08500
O1657       O  0.97205850  0.89723545  0.28819283    -0.40300
O1658       O  0.94129379  0.92819136  0.30830234    -0.39500
O1659       O  0.86252227  0.93093908  0.17271730    -0.39500
O1660       O  0.89086545  0.89745766  0.15297915    -0.37200
O1661       O  0.77852443  0.88217191  0.24819163    -0.38100
O1662       O  0.78041161  0.88221342  0.19799554    -0.34300
O1663       O  0.91574319  0.81624112  0.24902462    -0.35700
O1664       O  0.91646145  0.82320473  0.19934127    -0.39900
C1665       C  0.88087764  0.14954471  0.20394205    -0.13600
C1666       C  0.88048487  0.12558864  0.22415538     0.16700
C1667       C  0.85755946  0.12278459  0.24488231     0.03000
C1668       C  0.83438139  0.14260728  0.24369691    -0.12100
C1669       C  0.83382133  0.16613702  0.22268008    -0.03200
C1670       C  0.85816144  0.17024542  0.20350475     0.02300
C1671       C  0.90420881  0.10371451  0.22374020     0.09100
N1672       N  0.85747309  0.09982594  0.26730597     0.65500
H1673       H  0.81660755  0.13930502  0.25936583     0.18400
N1674       N  0.86059324  0.19536791  0.18395591     0.75900
H1675       H  0.89905513  0.15232821  0.18866512     0.09900
C1676       C  0.90503748  0.08125987  0.20129881     0.03600
C1677       C  0.92684776  0.05980548  0.20256140    -0.05100
C1678       C  0.94782189  0.06006341  0.22618449    -0.23500
C1679       C  0.94755006  0.08325045  0.24806473     0.12800
C1680       C  0.92569270  0.10476877  0.24670334    -0.12700
N1681       N  0.88302530  0.07903616  0.17805773     0.64500
H1682       H  0.92668579  0.04219820  0.18560352     0.12400
N1683       N  0.96973127  0.08588855  0.27110329     0.61200
H1684       H  0.92538538  0.12232413  0.26371889     0.08500
O1685       O  0.85680161  0.19246825  0.15523259    -0.40300
O1686       O  0.87329561  0.21793927  0.19415136    -0.39500
O1687       O  0.86681660  0.10510177  0.29420966    -0.39500
O1688       O  0.84215702  0.07737776  0.26258752    -0.37200
O1689       O  0.99219887  0.10024172  0.26503787    -0.38100
O1690       O  0.96386856  0.08056236  0.29888743    -0.34300
O1691       O  0.88824644  0.08757346  0.15102765    -0.35700
O1692       O  0.86180177  0.06237204  0.18252212    -0.39900
C1693       C  0.09984918  0.08697502  0.20090067    -0.13600
C1694       C  0.11507943  0.09206762  0.22853049     0.16700
C1695       C  0.10818799  0.07565884  0.25492166     0.03000
C1696       C  0.08581971  0.05532907  0.25362157    -0.12100
C1697       C  0.06990121  0.05064632  0.22631719    -0.03200
C1698       C  0.07748513  0.06638553  0.19946017     0.02300
C1699       C  0.13551842  0.11688260  0.23042129     0.09100
N1700       N  0.12389448  0.07913787  0.28325187     0.65500
H1701       H  0.08094531  0.04312497  0.27433801     0.18400
N1702       N  0.06214895  0.06274259  0.17090445     0.75900
H1703       H  0.10457409  0.09987909  0.18061244     0.09900
C1704       C  0.15948395  0.11906052  0.21078465     0.03600
C1705       C  0.17700667  0.14398784  0.21218592    -0.05100
C1706       C  0.17107645  0.16715348  0.23284875    -0.23500
C1707       C  0.14701714  0.16471756  0.25267549     0.12800
C1708       C  0.12953388  0.13986664  0.25105381    -0.12700
N1709       N  0.16648684  0.09609208  0.18945744     0.64500
H1710       H  0.19511564  0.14532576  0.19659564     0.12400
N1711       N  0.13991391  0.18703829  0.27475586     0.61200
H1712       H  0.11071307  0.13881507  0.26568784     0.08500
O1713       O  0.04058907  0.07910474  0.16503847    -0.40300
O1714       O  0.07401444  0.04871336  0.14918600    -0.39500
O1715       O  0.11260930  0.09368673  0.30495297    -0.39500
O1716       O  0.14450443  0.06160928  0.28926367    -0.37200
O1717       O  0.12003584  0.20536196  0.26848874    -0.38100
O1718       O  0.14787296  0.18374280  0.30248289    -0.34300
O1719       O  0.16278233  0.10041309  0.16093110    -0.35700
O1720       O  0.18247708  0.07502725  0.19828327    -0.39900
loop_ 
_geom_bond_atom_site_label_1 
_geom_bond_atom_site_label_2 
_geom_bond_distance 
_geom_bond_site_symmetry_2 
_ccdc_geom_bond_type 
O1           Ni9   1.914       .  S
O1           C11   1.282       .  A
O2           Ni9   1.913   1_645  S
O2           C12   1.281       .  A
O3           Ni9   1.912   1_545  S
O3           C13   1.278       .  A
O4           Ni9   1.912   1_655  S
O4           C14   1.282       .  A
O5          Ni10   1.930   1_655  S
O5           C14   1.283       .  A
O6          Ni10   1.914   1_545  S
O6           C13   1.283       .  A
O7          Ni10   1.916   1_645  S
O7           C12   1.280       .  A
O8          Ni10   1.911       .  S
O8           C11   1.280       .  A
Ni9         Ni10   2.386       .  S
C11        C1613   1.483       .  S
C12        C1678   1.476       .  S
C13        C1697   1.482       .  S
C14        C1641   1.487       .  S
O15         Ni21   1.928       .  S
O15          C36   1.272       .  A
O16         Ni39   1.902       .  S
O16          C25   1.266       .  A
O17         Ni21   1.915       .  S
O17         Ni39   1.893       .  S
O17         Ni33   1.903       .  S
O17          H40   0.968       .  S
C18          O35   1.272       .  A
C18          O27   1.272       .  A
C18        C1529   1.469       .  S
O19         Ni38   1.912       .  S
O19          C25   1.266       .  A
O20         Ni38   1.914       .  S
O20          C22   1.268       .  A
Ni21         O24   1.926       .  S
Ni21         O26   1.916       .  S
C22          O32   1.268       .  A
C22        C1501   1.482       .  S
O23         Ni39   1.911       .  S
O23          C29   1.278       .  A
O24          C29   1.276       .  A
C25        C1585   1.467       .  S
O26          C28   1.268       .  A
O27         Ni38   1.912       .  S
C28          O34   1.267       .  A
C28        C1566   1.481       .  S
C29        C1706   1.484       .  S
H30          O31   0.965       .  S
O31         Ni39   1.921       .  S
O31         Ni33   1.904       .  S
O31         Ni38   1.923       .  S
O32         Ni33   1.898       .  S
Ni33         O37   1.895       .  S
Ni33         O35   1.915       .  S
O34         Ni39   1.904       .  S
C36          O37   1.264       .  A
C36        C1473   1.467       .  S
O41         Ni47   1.951       .  S
O41          C62   1.276       .  A
O42         Ni65   1.898       .  S
O42          C51   1.268       .  A
O43         Ni47   1.922       .  S
O43         Ni65   1.909       .  S
O43         Ni59   1.905       .  S
O43          H66   0.966       .  S
C44          O61   1.269       .  A
C44          O53   1.276       .  A
C44        C1398   1.480       .  S
O45         Ni64   1.936       .  S
O45          C51   1.272       .  A
O46         Ni64   1.915       .  S
O46          C48   1.269       .  A
Ni47         O50   1.926       .  S
Ni47         O52   1.924       .  S
C48          O58   1.277       .  A
C48        C1370   1.503       .  S
O49         Ni65   1.908       .  S
O49          C55   1.270       .  A
O50          C55   1.278       .  A
C51        C1445   1.485       .  S
O52          C54   1.273       .  A
O53         Ni64   1.930       .  S
C54          O60   1.279       .  A
C54        C1417   1.508       .  S
C55        C1669   1.488       .  S
H56          O57   0.968       .  S
O57         Ni65   1.904       .  S
O57         Ni59   1.906       .  S
O57         Ni64   1.927       .  S
O58         Ni59   1.945       .  S
Ni59         O63   1.893       .  S
Ni59         O61   1.908       .  S
O60         Ni65   1.940       .  S
C62          O63   1.265       .  A
C62        C1342   1.488       .  S
O67         Ni73   1.928       .  S
O67          C88   1.272       .  A
O68         Ni91   1.885       .  S
O68          C77   1.264       .  A
O69         Ni73   1.909       .  S
O69         Ni91   1.896       .  S
O69         Ni85   1.923       .  S
O69          H92   0.957       .  S
C70          O87   1.278       .  A
C70          O79   1.280       .  A
C70        C1650   1.492       .  S
O71         Ni90   1.943       .  S
O71          C77   1.279       .  A
O72         Ni90   1.918       .  S
O72          C74   1.272       .  A
Ni73         O76   1.933       .  S
Ni73         O78   1.907       .  S
C74          O84   1.271       .  A
C74        C1305   1.502       .  S
O75         Ni91   1.923       .  S
O75          C81   1.277       .  A
O76          C81   1.278       .  A
C77        C1230   1.481       .  S
O78          C80   1.270       .  A
O79         Ni90   1.941       .  S
C80          O86   1.274       .  A
C80        C1193   1.494       .  S
C81        C1249   1.498       .  S
H82          O83   0.976       .  S
O83         Ni91   1.905       .  S
O83         Ni85   1.888       .  S
O83         Ni90   1.901       .  S
O84         Ni85   1.938       .  S
Ni85         O89   1.886       .  S
Ni85         O87   1.912       .  S
O86         Ni91   1.938       .  S
C88          O89   1.262       .  A
C88        C1277   1.465       .  S
O93         Ni99   1.934       .  S
O93         C114   1.274       .  A
O94        Ni117   1.892       .  S
O94         C103   1.261       .  A
O95         Ni99   1.917       .  S
O95        Ni117   1.888       .  S
O95        Ni111   1.894       .  S
O95         H118   0.969       .  S
C96         O113   1.265       .  A
C96         O105   1.274       .  A
C96        C1622   1.466       .  S
O97        Ni116   1.928       .  S
O97         C103   1.273       .  A
O98        Ni116   1.899       .  S
O98         C100   1.269       .  A
Ni99        O102   1.934       .  S
Ni99        O104   1.923       .  S
C100        O110   1.275       .  A
C100       C1165   1.492       .  S
O101       Ni117   1.881       .  S
O101        C107   1.269       .  A
O102        C107   1.278       .  A
C103       C1090   1.472       .  S
O104        C106   1.270       .  A
O105       Ni116   1.936       .  S
C106        O112   1.268       .  A
C106       C1062   1.487       .  S
C107       C1118   1.480       .  S
H108        O109   0.967       .  S
O109       Ni117   1.903       .  S
O109       Ni111   1.901       .  S
O109       Ni116   1.910       .  S
O110       Ni111   1.948       .  S
Ni111       O115   1.889       .  S
Ni111       O113   1.879       .  S
O112       Ni117   1.914       .  S
C114        O115   1.262       .  A
C114       C1137   1.474       .  S
O119       Ni127   1.905       .  S
O119        C129   1.278       .  A
O120       Ni127   1.904   1_564  S
O120        C130   1.279       .  A
O121       Ni127   1.897       .  S
O121        C131   1.281       .  A
O122       Ni127   1.902   1_565  S
O122        C132   1.277       .  A
O123       Ni128   1.914       .  S
O123        C132   1.282       .  A
O124       Ni128   1.912   1_545  S
O124        C131   1.278       .  A
O125       Ni128   1.912   1_554  S
O125        C130   1.279       .  A
O126       Ni128   1.915   1_545  S
O126        C129   1.283       .  A
Ni127      Ni128   2.393   1_545  S
C129        C997   1.471       .  S
C130       C1146   1.460       .  S
C131       C1594   1.466   1_556  S
C132       C1034   1.465       .  S
O133       Ni141   1.925   1_655  S
O133        C143   1.284   1_556  A
O134       Ni141   1.916       .  S
O134        C144   1.283       .  A
O135       Ni141   1.915   1_655  S
O135        C145   1.280       .  A
O136       Ni141   1.917       .  S
O136        C146   1.279   1_556  A
O137       Ni142   1.911       .  S
O137        C146   1.282   1_556  A
O138       Ni142   1.919   1_655  S
O138        C145   1.283       .  A
O139       Ni142   1.911       .  S
O139        C144   1.279       .  A
O140       Ni142   1.913   1_655  S
O140        C143   1.279   1_556  A
Ni141      Ni142   2.387       .  S
C143       C1454   1.478       .  S
C144        C969   1.482       .  S
C145        C950   1.481       .  S
C146       C1557   1.479       .  S
O147       Ni155   1.938   1_545  S
O147        C157   1.287       .  A
O148       Ni155   1.934       .  S
O148        C158   1.284       .  A
O149       Ni155   1.938   1_545  S
O149        C159   1.285       .  A
O150       Ni155   1.939       .  S
O150        C160   1.284       .  A
O151       Ni156   1.924       .  S
O151        C160   1.284       .  A
O152       Ni156   1.928   1_545  S
O152        C159   1.285       .  A
O153       Ni156   1.920       .  S
O153        C158   1.283       .  A
O154       Ni156   1.927   1_545  S
O154        C157   1.281       .  A
Ni155      Ni156   2.378       .  S
C157        C913   1.504       .  S
C158       C1314   1.501   1_556  S
C159       C1426   1.507   1_556  S
C160        C894   1.501       .  S
O161       Ni169   1.932   1_554  S
O161        C171   1.284       .  A
O162       Ni169   1.938   1_655  S
O162        C172   1.285       .  A
O163       Ni169   1.913       .  S
O163        C173   1.281       .  A
O164       Ni169   1.925   1_654  S
O164        C174   1.282       .  A
O165       Ni170   1.901   1_655  S
O165        C174   1.279   1_556  A
O166       Ni170   1.902       .  S
O166        C173   1.278       .  A
O167       Ni170   1.907   1_655  S
O167        C172   1.280       .  A
O168       Ni170   1.903       .  S
O168        C171   1.279   1_556  A
Ni169      Ni170   2.388       .  S
C171       C1174   1.478       .  S
C172        C866   1.489       .  S
C173        C829   1.470       .  S
C174       C1286   1.476       .  S
O175       Ni181   1.931       .  S
O175        C196   1.272       .  A
O176       Ni199   1.907       .  S
O176        C185   1.265       .  A
O177       Ni181   1.922       .  S
O177       Ni199   1.900       .  S
O177       Ni193   1.915       .  S
O177        H200   0.966       .  S
C178        O195   1.279       .  A
C178        O187   1.277       .  A
C178        C838   1.482       .  S
O179       Ni198   1.923       .  S
O179        C185   1.270       .  A
O180       Ni198   1.912       .  S
O180        C182   1.270       .  A
Ni181       O184   1.927       .  S
Ni181       O186   1.918       .  S
C182        O192   1.275       .  A
C182        C810   1.502       .  S
O183       Ni199   1.892       .  S
O183        C189   1.273       .  A
O184        C189   1.275       .  A
C185        C717   1.483       .  S
O186        C188   1.271       .  A
O187       Ni198   1.916       .  S
C188        O194   1.272       .  A
C188        C773   1.491       .  S
C189        C754   1.481       .  S
H190        O191   0.966       .  S
O191       Ni199   1.902       .  S
O191       Ni193   1.893       .  S
O191       Ni198   1.902       .  S
O192       Ni193   1.946       .  S
Ni193       O197   1.888       .  S
Ni193       O195   1.926       .  S
O194       Ni199   1.927       .  S
C196        O197   1.267       .  A
C196       C1025   1.475       .  S
O201       Ni209   1.918   1_655  S
O201        C211   1.280       .  A
O202       Ni209   1.918   1_545  S
O202        C212   1.280       .  A
O203       Ni209   1.935   1_645  S
O203        C213   1.284       .  A
O204       Ni209   1.935       .  S
O204        C214   1.287       .  A
O205       Ni210   1.922       .  S
O205        C214   1.280       .  A
O206       Ni210   1.919   1_645  S
O206        C213   1.283       .  A
O207       Ni210   1.909   1_545  S
O207        C212   1.280       .  A
O208       Ni210   1.904   1_655  S
O208        C211   1.281       .  A
Ni209      Ni210   2.384       .  S
C211        C633   1.480       .  S
C212        C689   1.473       .  S
C213        C661   1.496       .  S
C214        C801   1.502       .  S
O215       Ni221   1.939       .  S
O215        C236   1.275       .  A
O216       Ni239   1.889       .  S
O216        C225   1.266       .  A
O217       Ni221   1.905       .  S
O217       Ni239   1.896       .  S
O217       Ni233   1.902       .  S
O217        H240   0.958       .  S
C218        O235   1.273       .  A
C218        O227   1.276       .  A
C218        C698   1.481       .  S
O219       Ni238   1.921       .  S
O219        C225   1.266       .  A
O220       Ni238   1.904       .  S
O220        C222   1.265       .  A
Ni221       O224   1.932       .  S
Ni221       O226   1.914       .  S
C222        O232   1.271       .  A
C222        C978   1.489       .  S
O223       Ni239   1.906       .  S
O223        C229   1.272       .  A
O224        C229   1.279       .  A
C225        C577   1.472       .  S
O226        C228   1.270       .  A
O227       Ni238   1.913       .  S
C228        O234   1.279       .  A
C228        C549   1.501       .  S
C229        C605   1.482       .  S
H230        O231   0.965       .  S
O231       Ni239   1.906       .  S
O231       Ni233   1.899       .  S
O231       Ni238   1.917       .  S
O232       Ni233   1.922       .  S
Ni233       O237   1.887       .  S
Ni233       O235   1.915       .  S
O234       Ni239   1.948       .  S
C236        O237   1.263       .  A
C236       C1006   1.477       .  S
O241       Ni247   1.941       .  S
O241        C262   1.276       .  A
O242       Ni265   1.881       .  S
O242        C251   1.264       .  A
O243       Ni247   1.927       .  S
O243       Ni265   1.907       .  S
O243       Ni259   1.924       .  S
O243        H266   0.963       .  S
C244        O261   1.270       .  A
C244        O253   1.274       .  A
C244        C670   1.480       .  S
O245       Ni264   1.937       .  S
O245        C251   1.274       .  A
O246       Ni264   1.919       .  S
O246        C248   1.273       .  A
Ni247       O250   1.939       .  S
Ni247       O252   1.912       .  S
C248        O258   1.280       .  A
C248        C922   1.507       .  S
O249       Ni265   1.931       .  S
O249        C255   1.273       .  A
O250        C255   1.276       .  A
C251        C493   1.475       .  S
O252        C254   1.271       .  A
O253       Ni264   1.934       .  S
C254        O260   1.278       .  A
C254        C474   1.495       .  S
C255        C521   1.502       .  S
H256        O257   0.969       .  S
O257       Ni265   1.920       .  S
O257       Ni259   1.903       .  S
O257       Ni264   1.930       .  S
O258       Ni259   1.951       .  S
Ni259       O263   1.894       .  S
Ni259       O261   1.919       .  S
O260       Ni265   1.950       .  S
C262        O263   1.264       .  A
C262        C941   1.488       .  S
O267       Ni273   1.937       .  S
O267        C288   1.274       .  A
O268       Ni291   1.901       .  S
O268        C277   1.269       .  A
O269       Ni273   1.928       .  S
O269       Ni291   1.910       .  S
O269       Ni285   1.910       .  S
O269        H292   0.964       .  S
C270        O287   1.264       .  A
C270        O279   1.272       .  A
C270        C437   1.469       .  S
O271       Ni290   1.928       .  S
O271        C277   1.271       .  A
O272       Ni290   1.905       .  S
O272        C274   1.270       .  A
Ni273       O276   1.935       .  S
Ni273       O278   1.911       .  S
C274        O284   1.277       .  A
C274        C409   1.497       .  S
O275       Ni291   1.900       .  S
O275        C281   1.268       .  A
O276        C281   1.273       .  A
C277        C857   1.481       .  S
O278        C280   1.272       .  A
O279       Ni290   1.935       .  S
C280        O286   1.281       .  A
C280        C885   1.500       .  S
C281        C642   1.473       .  S
H282        O283   0.977       .  S
O283       Ni291   1.906       .  S
O283       Ni285   1.902       .  S
O283       Ni290   1.925       .  S
O284       Ni285   1.955       .  S
Ni285       O289   1.885       .  S
Ni285       O287   1.889       .  S
O286       Ni291   1.951       .  S
C288        O289   1.260       .  A
C288        C381   1.485       .  S
O293       Ni301   1.913       .  S
O293        C303   1.279       .  A
O294       Ni301   1.910       .  S
O294        C304   1.279       .  A
O295       Ni301   1.933       .  S
O295        C305   1.284       .  A
O296       Ni301   1.936       .  S
O296        C306   1.285       .  A
O297       Ni302   1.929       .  S
O297        C306   1.283       .  A
O298       Ni302   1.927       .  S
O298        C305   1.283       .  A
O299       Ni302   1.918       .  S
O299        C304   1.282       .  A
O300       Ni302   1.911       .  S
O300        C303   1.282       .  A
Ni301      Ni302   2.381       .  S
C303        C614   1.484       .  S
C304        C446   1.486       .  S
C305        C782   1.503       .  S
C306        C530   1.497       .  S
O307       Ni315   1.903       .  S
O307        C317   1.280       .  A
O308       Ni315   1.902       .  S
O308        C318   1.279       .  A
O309       Ni315   1.925       .  S
O309        C319   1.284       .  A
O310       Ni315   1.923       .  S
O310        C320   1.281       .  A
O311       Ni316   1.913       .  S
O311        C320   1.282       .  A
O312       Ni316   1.917       .  S
O312        C319   1.280       .  A
O313       Ni316   1.918       .  S
O313        C318   1.282       .  A
O314       Ni316   1.923       .  S
O314        C317   1.282       .  A
Ni315      Ni316   2.387       .  S
C317       C1389   1.482       .  S
C318       C1109   1.472       .  S
C319       C1258   1.487       .  S
C320       C1538   1.478       .  S
O321       Ni329   1.916       .  S
O321        C331   1.280       .  A
O322       Ni329   1.917       .  S
O322        C332   1.283       .  A
O323       Ni329   1.918       .  S
O323        C333   1.283       .  A
O324       Ni329   1.925       .  S
O324        C334   1.282       .  A
O325       Ni330   1.931       .  S
O325        C334   1.285       .  A
O326       Ni330   1.932       .  S
O326        C333   1.283       .  A
O327       Ni330   1.941       .  S
O327        C332   1.285       .  A
O328       Ni330   1.931       .  S
O328        C331   1.285       .  A
Ni329      Ni330   2.380       .  S
C331       C1202   1.493       .  S
C332        C465   1.501       .  S
C333        C418   1.495       .  S
C334       C1361   1.498       .  S
O335       Ni343   1.907       .  S
O335        C345   1.280       .  A
O336       Ni343   1.909       .  S
O336        C346   1.282       .  A
O337       Ni343   1.902       .  S
O337        C347   1.279       .  A
O338       Ni343   1.907       .  S
O338        C348   1.278       .  A
O339       Ni344   1.900       .  S
O339        C348   1.281       .  A
O340       Ni344   1.908       .  S
O340        C347   1.278       .  A
O341       Ni344   1.936       .  S
O341        C346   1.284       .  A
O342       Ni344   1.923       .  S
O342        C345   1.282       .  A
Ni343      Ni344   2.387       .  S
C345        C390   1.479       .  S
C346       C1053   1.496       .  S
C347       C1221   1.463       .  S
C348        C745   1.472       .  S
O349       Ni357   1.906       .  S
O349        C359   1.279       .  A
O350       Ni357   1.899       .  S
O350        C360   1.278       .  A
O351       Ni357   1.913       .  S
O351        C361   1.279       .  A
O352       Ni357   1.915       .  S
O352        C362   1.282       .  A
O353       Ni358   1.914       .  S
O353        C362   1.280       .  A
O354       Ni358   1.903       .  S
O354        C361   1.280       .  A
O355       Ni358   1.907       .  S
O355        C360   1.279       .  A
O356       Ni358   1.903       .  S
O356        C359   1.279       .  A
Ni357      Ni358   2.394       .  S
C359       C1081   1.461       .  S
C360        C586   1.457       .  S
C361        C726   1.460       .  S
C362       C1482   1.474       .  S
O363       Ni371   1.924       .  S
O363        C373   1.283       .  A
O364       Ni371   1.925       .  S
O364        C374   1.281       .  A
O365       Ni371   1.917       .  S
O365        C375   1.281       .  A
O366       Ni371   1.915       .  S
O366        C376   1.281       .  A
O367       Ni372   1.914       .  S
O367        C376   1.280       .  A
O368       Ni372   1.902       .  S
O368        C375   1.279       .  A
O369       Ni372   1.929       .  S
O369        C374   1.285       .  A
O370       Ni372   1.932       .  S
O370        C373   1.283       .  A
Ni371      Ni372   2.385       .  S
C373        C558   1.488       .  S
C374       C1333   1.495       .  S
C375       C1510   1.480       .  S
C376        C502   1.477       .  S
C377        C378   1.401       .  A
C377        C382   1.397       .  A
C377        H387   1.083       .  S
C378        C383   1.485       .  S
C378        C379   1.412       .  A
C379        C380   1.399       .  A
C379        N384   1.429       .  S
C380        C381   1.404       .  A
C380        H385   1.084       .  S
C381        C382   1.417       .  A
C382        N386   1.430       .  S
C383        C388   1.413       .  A
C383        C392   1.403       .  A
N384        O399   1.262       .  A
N384        O400   1.261       .  A
N386        O397   1.262       .  A
N386        O398   1.262       .  A
C388        C389   1.397       .  A
C388        N393   1.430       .  S
C389        C390   1.404       .  A
C389        H394   1.084       .  S
C390        C391   1.412       .  A
C391        C392   1.400       .  A
C391        N395   1.428       .  S
C392        H396   1.083       .  S
N393        O403   1.262       .  A
N393        O404   1.262       .  A
N395        O401   1.262       .  A
N395        O402   1.262       .  A
C405        C406   1.402       .  A
C405        C410   1.406       .  A
C405        H415   1.084       .  S
C406        C411   1.484       .  S
C406        C407   1.405       .  A
C407        C408   1.400       .  A
C407        N412   1.428       .  S
C408        C409   1.410       .  A
C408        H413   1.083       .  S
C409        C410   1.418       .  A
C410        N414   1.429       .  S
C411        C416   1.405       .  A
C411        C420   1.402       .  A
N412        O427   1.262       .  A
N412        O428   1.262       .  A
N414        O425   1.262       .  A
N414        O426   1.262       .  A
C416        C417   1.398       .  A
C416        N421   1.428       .  S
C417        C418   1.407       .  A
C417        H422   1.083       .  S
C418        C419   1.419       .  A
C419        C420   1.408       .  A
C419        N423   1.429       .  S
C420        H424   1.084       .  S
N421        O431   1.262       .  A
N421        O432   1.262       .  A
N423        O429   1.262       .  A
N423        O430   1.262       .  A
C433        C434   1.400       .  A
C433        C438   1.396       .  A
C433        H443   1.084       .  S
C434        C439   1.470       .  S
C434        C435   1.408       .  A
C435        C436   1.397       .  A
C435        N440   1.429       .  S
C436        C437   1.403       .  A
C436        H441   1.084       .  S
C437        C438   1.410       .  A
C438        N442   1.429       .  S
C439        C444   1.406       .  A
C439        C448   1.396       .  A
N440        O455   1.262       .  A
N440        O456   1.262       .  A
N442        O453   1.262       .  A
N442        O454   1.262       .  A
C444        C445   1.399       .  A
C444        N449   1.429       .  S
C445        C446   1.408       .  A
C445        H450   1.083       .  S
C446        C447   1.418       .  A
C447        C448   1.397       .  A
C447        N451   1.428       .  S
C448        H452   1.084       .  S
N449        O459   1.262       .  A
N449        O460   1.262       .  A
N451        O457   1.262       .  A
N451        O458   1.262       .  A
C461        C462   1.405       .  A
C461        C466   1.411       .  A
C461        H471   1.084       .  S
C462        C467   1.493       .  S
C462        C463   1.408       .  A
C463        C464   1.400       .  A
C463        N468   1.428       .  S
C464        C465   1.408       .  A
C464        H469   1.083       .  S
C465        C466   1.419       .  A
C466        N470   1.428       .  S
C467        C472   1.411       .  A
C467        C476   1.401       .  A
N468        O483   1.262       .  A
N468        O484   1.262       .  A
N470        O481   1.262       .  A
N470        O482   1.262       .  A
C472        C473   1.409       .  A
C472        N477   1.428       .  S
C473        C474   1.407       .  A
C473        H478   1.084       .  S
C474        C475   1.417       .  A
C475        C476   1.404       .  A
C475        N479   1.429       .  S
C476        H480   1.084       .  S
N477        O487   1.262       .  A
N477        O488   1.262       .  A
N479        O485   1.262       .  A
N479        O486   1.262       .  A
C489        C490   1.400       .  A
C489        C494   1.397       .  A
C489        H499   1.084       .  S
C490        C495   1.472       .  S
C490        C491   1.407       .  A
C491        C492   1.395       .  A
C491        N496   1.429       .  S
C492        C493   1.405       .  A
C492        H497   1.084       .  S
C493        C494   1.413       .  A
C494        N498   1.429       .  S
C495        C500   1.408       .  A
C495        C504   1.398       .  A
N496        O511   1.262       .  A
N496        O512   1.262       .  A
N498        O509   1.262       .  A
N498        O510   1.262       .  A
C500        C501   1.400       .  A
C500        N505   1.430       .  S
C501        C502   1.406       .  A
C501        H506   1.084       .  S
C502        C503   1.413       .  A
C503        C504   1.396       .  A
C503        N507   1.428       .  S
C504        H508   1.084       .  S
N505        O515   1.262       .  A
N505        O516   1.261       .  A
N507        O513   1.262       .  A
N507        O514   1.261       .  A
C517        C518   1.409       .  A
C517        C522   1.413       .  A
C517        H527   1.083       .  S
C518        C523   1.505       .  S
C518        C519   1.413       .  A
C519        C520   1.403       .  A
C519        N524   1.429       .  S
C520        C521   1.406       .  A
C520        H525   1.082       .  S
C521        C522   1.417       .  A
C522        N526   1.428       .  S
C523        C528   1.415       .  A
C523        C532   1.406       .  A
N524        O539   1.262       .  A
N524        O540   1.262       .  A
N526        O537   1.261       .  A
N526        O538   1.262       .  A
C528        C529   1.410       .  A
C528        N533   1.429       .  S
C529        C530   1.407       .  A
C529        H534   1.084       .  S
C530        C531   1.413       .  A
C531        C532   1.407       .  A
C531        N535   1.428       .  S
C532        H536   1.083       .  S
N533        O543   1.262       .  A
N533        O544   1.262       .  A
N535        O541   1.262       .  A
N535        O542   1.262       .  A
C545        C546   1.403       .  A
C545        C550   1.407       .  A
C545        H555   1.084       .  S
C546        C551   1.494       .  S
C546        C547   1.412       .  A
C547        C548   1.406       .  A
C547        N552   1.428       .  S
C548        C549   1.408       .  A
C548        H553   1.084       .  S
C549        C550   1.419       .  A
C550        N554   1.429       .  S
C551        C556   1.413       .  A
C551        C560   1.406       .  A
N552        O567   1.262       .  A
N552        O568   1.261       .  A
N554        O565   1.262       .  A
N554        O566   1.262       .  A
C556        C557   1.404       .  A
C556        N561   1.428       .  S
C557        C558   1.403       .  A
C557        H562   1.084       .  S
C558        C559   1.414       .  A
C559        C560   1.409       .  A
C559        N563   1.429       .  S
C560        H564   1.084       .  S
N561        O571   1.262       .  A
N561        O572   1.261       .  A
N563        O569   1.262       .  A
N563        O570   1.262       .  A
C573        C574   1.394       .  A
C573        C578   1.395       .  A
C573        H583   1.084       .  S
C574        C579   1.457       .  S
C574        C575   1.404       .  A
C575        C576   1.388       .  A
C575        N580   1.429       .  S
C576        C577   1.402       .  A
C576        H581   1.083       .  S
C577        C578   1.419       .  A
C578        N582   1.429       .  S
C579        C584   1.406       .  A
C579        C588   1.397       .  A
N580        O595   1.262       .  A
N580        O596   1.262       .  A
N582        O593   1.262       .  A
N582        O594   1.262       .  A
C584        C585   1.391       .  A
C584        N589   1.429       .  S
C585        C586   1.400       .  A
C585        H590   1.084       .  S
C586        C587   1.408       .  A
C587        C588   1.392       .  A
C587        N591   1.428       .  S
C588        H592   1.084       .  S
N589        O599   1.262       .  A
N589        O600   1.262       .  A
N591        O597   1.262       .  A
N591        O598   1.261       .  A
C601        C602   1.402       .  A
C601        C606   1.399       .  A
C601        H611   1.083       .  S
C602        C607   1.483       .  S
C602        C603   1.411       .  A
C603        C604   1.397       .  A
C603        N608   1.429       .  S
C604        C605   1.405       .  A
C604        H609   1.084       .  S
C605        C606   1.415       .  A
C606        N610   1.429       .  S
C607        C612   1.412       .  A
C607        C616   1.401       .  A
N608        O623   1.262       .  A
N608        O624   1.262       .  A
N610        O621   1.262       .  A
N610        O622   1.262       .  A
C612        C613   1.396       .  A
C612        N617   1.430       .  S
C613        C614   1.404       .  A
C613        H618   1.084       .  S
C614        C615   1.416       .  A
C615        C616   1.400       .  A
C615        N619   1.429       .  S
C616        H620   1.083       .  S
N617        O627   1.262       .  A
N617        O628   1.262       .  A
N619        O625   1.262       .  A
N619        O626   1.262       .  A
C629        C630   1.400       .  A
C629        C634   1.402       .  A
C629        H639   1.084       .  S
C630        C635   1.468       .  S
C630        C631   1.404       .  A
C631        C632   1.392       .  A
C631        N636   1.428       .  S
C632        C633   1.405       .  A
C632        H637   1.084       .  S
C633        C634   1.417       .  A
C634        N638   1.429       .  S
C635        C640   1.407       .  A
C635        C644   1.397       .  A
N636        O651   1.262       .  A
N636        O652   1.262       .  A
N638        O649   1.262       .  A
N638        O650   1.262       .  A
C640        C641   1.399       .  A
C640        N645   1.428       .  S
C641        C642   1.403       .  A
C641        H646   1.084       .  S
C642        C643   1.414       .  A
C643        C644   1.395       .  A
C643        N647   1.430       .  S
C644        H648   1.084       .  S
N645        O655   1.262       .  A
N645        O656   1.262       .  A
N647        O653   1.262       .  A
N647        O654   1.262       .  A
C657        C658   1.400       .  A
C657        C662   1.405       .  A
C657        H667   1.084       .  S
C658        C663   1.484       .  S
C658        C659   1.408       .  A
C659        C660   1.402       .  A
C659        N664   1.429       .  S
C660        C661   1.409       .  A
C660        H665   1.084       .  S
C661        C662   1.417       .  A
C662        N666   1.427       .  S
C663        C668   1.410       .  A
C663        C672   1.403       .  A
N664        O679   1.262       .  A
N664        O680   1.262       .  A
N666        O677   1.261       .  A
N666        O678   1.261       .  A
C668        C669   1.400       .  A
C668        N673   1.429       .  S
C669        C670   1.404       .  A
C669        H674   1.085       .  S
C670        C671   1.411       .  A
C671        C672   1.404       .  A
C671        N675   1.428       .  S
C672        H676   1.084       .  S
N673        O683   1.262       .  A
N673        O684   1.262       .  A
N675        O681   1.261       .  A
N675        O682   1.261       .  A
C685        C686   1.400       .  A
C685        C690   1.398       .  A
C685        H695   1.084       .  S
C686        C691   1.474       .  S
C686        C687   1.408       .  A
C687        C688   1.396       .  A
C687        N692   1.428       .  S
C688        C689   1.402       .  A
C688        H693   1.084       .  S
C689        C690   1.412       .  A
C690        N694   1.427       .  S
C691        C696   1.407       .  A
C691        C700   1.401       .  A
N692        O707   1.262       .  A
N692        O708   1.262       .  A
N694        O705   1.261       .  A
N694        O706   1.262       .  A
C696        C697   1.394       .  A
C696        N701   1.429       .  S
C697        C698   1.406       .  A
C697        H702   1.084       .  S
C698        C699   1.415       .  A
C699        C700   1.399       .  A
C699        N703   1.429       .  S
C700        H704   1.084       .  S
N701        O711   1.262       .  A
N701        O712   1.262       .  A
N703        O709   1.262       .  A
N703        O710   1.262       .  A
C713        C714   1.400       .  A
C713        C718   1.398       .  A
C713        H723   1.084       .  S
C714        C719   1.473       .  S
C714        C715   1.405       .  A
C715        C716   1.397       .  A
C715        N720   1.429       .  S
C716        C717   1.407       .  A
C716        H721   1.084       .  S
C717        C718   1.416       .  A
C718        N722   1.429       .  S
C719        C724   1.407       .  A
C719        C728   1.405       .  A
N720        O735   1.262       .  A
N720        O736   1.262       .  A
N722        O733   1.262       .  A
N722        O734   1.262       .  A
C724        C725   1.392       .  A
C724        N729   1.427       .  S
C725        C726   1.399       .  A
C725        H730   1.085       .  S
C726        C727   1.407       .  A
C727        C728   1.400       .  A
C727        N731   1.429       .  S
C728        H732   1.084       .  S
N729        O739   1.262       .  A
N729        O740   1.262       .  A
N731        O737   1.262       .  A
N731        O738   1.261       .  A
C741        C742   1.399       .  A
C741        C746   1.397       .  A
C741        H751   1.084       .  S
C742        C747   1.460       .  S
C742        C743   1.400       .  A
C743        C744   1.388       .  A
C743        N748   1.428       .  S
C744        C745   1.404       .  A
C744        H749   1.084       .  S
C745        C746   1.416       .  A
C746        N750   1.430       .  S
C747        C752   1.400       .  A
C747        C756   1.397       .  A
N748        O763   1.262       .  A
N748        O764   1.262       .  A
N750        O761   1.262       .  A
N750        O762   1.262       .  A
C752        C753   1.389       .  A
C752        N757   1.429       .  S
C753        C754   1.408       .  A
C753        H758   1.083       .  S
C754        C755   1.420       .  A
C755        C756   1.398       .  A
C755        N759   1.429       .  S
C756        H760   1.084       .  S
N757        O767   1.262       .  A
N757        O768   1.262       .  A
N759        O765   1.261       .  A
N759        O766   1.261       .  A
C769        C770   1.402       .  A
C769        C774   1.401       .  A
C769        H779   1.084       .  S
C770        C775   1.490       .  S
C770        C771   1.412       .  A
C771        C772   1.406       .  A
C771        N776   1.428       .  S
C772        C773   1.407       .  A
C772        H777   1.084       .  S
C773        C774   1.414       .  A
C774        N778   1.427       .  S
C775        C780   1.411       .  A
C775        C784   1.401       .  A
N776        O791   1.262       .  A
N776        O792   1.261       .  A
N778        O789   1.261       .  A
N778        O790   1.262       .  A
C780        C781   1.407       .  A
C780        N785   1.429       .  S
C781        C782   1.411       .  A
C781        H786   1.083       .  S
C782        C783   1.418       .  A
C783        C784   1.404       .  A
C783        N787   1.427       .  S
C784        H788   1.084       .  S
N785        O795   1.262       .  A
N785        O796   1.262       .  A
N787        O793   1.262       .  A
N787        O794   1.262       .  A
C797        C798   1.403       .  A
C797        C802   1.408       .  A
C797        H807   1.084       .  S
C798        C803   1.496       .  S
C798        C799   1.410       .  A
C799        C800   1.404       .  A
C799        N804   1.428       .  S
C800        C801   1.407       .  A
C800        H805   1.083       .  S
C801        C802   1.422       .  A
C802        N806   1.429       .  S
C803        C808   1.411       .  A
C803        C812   1.404       .  A
N804        O819   1.262       .  A
N804        O820   1.262       .  A
N806        O817   1.262       .  A
N806        O818   1.262       .  A
C808        C809   1.404       .  A
C808        N813   1.429       .  S
C809        C810   1.410       .  A
C809        H814   1.084       .  S
C810        C811   1.417       .  A
C811        C812   1.408       .  A
C811        N815   1.428       .  S
C812        H816   1.084       .  S
N813        O823   1.262       .  A
N813        O824   1.262       .  A
N815        O821   1.262       .  A
N815        O822   1.262       .  A
C825        C826   1.403       .  A
C825        C830   1.393       .  A
C825        H835   1.084       .  S
C826        C831   1.479       .  S
C826        C827   1.411       .  A
C827        C828   1.399       .  A
C827        N832   1.428       .  S
C828        C829   1.402       .  A
C828        H833   1.084       .  S
C829        C830   1.410       .  A
C830        N834   1.430       .  S
C831        C836   1.410       .  A
C831        C840   1.403       .  A
N832        O847   1.262       .  A
N832        O848   1.262       .  A
N834        O845   1.262       .  A
N834        O846   1.262       .  A
C836        C837   1.398       .  A
C836        N841   1.429       .  S
C837        C838   1.407       .  A
C837        H842   1.084       .  S
C838        C839   1.411       .  A
C839        C840   1.397       .  A
C839        N843   1.428       .  S
C840        H844   1.084       .  S
N841        O851   1.262       .  A
N841        O852   1.262       .  A
N843        O849   1.262       .  A
N843        O850   1.262       .  A
C853        C854   1.401       .  A
C853        C858   1.399       .  A
C853        H863   1.084       .  S
C854        C859   1.485       .  S
C854        C855   1.413       .  A
C855        C856   1.401       .  A
C855        N860   1.429       .  S
C856        C857   1.403       .  A
C856        H861   1.084       .  S
C857        C858   1.414       .  A
C858        N862   1.429       .  S
C859        C864   1.409       .  A
C859        C868   1.405       .  A
N860        O875   1.262       .  A
N860        O876   1.262       .  A
N862        O873   1.262       .  A
N862        O874   1.262       .  A
C864        C865   1.398       .  A
C864        N869   1.430       .  S
C865        C866   1.407       .  A
C865        H870   1.084       .  S
C866        C867   1.415       .  A
C867        C868   1.405       .  A
C867        N871   1.428       .  S
C868        H872   1.084       .  S
N869        O879   1.262       .  A
N869        O880   1.262       .  A
N871        O877   1.262       .  A
N871        O878   1.262       .  A
C881        C882   1.402       .  A
C881        C886   1.406       .  A
C881        H891   1.084       .  S
C882        C887   1.492       .  S
C882        C883   1.410       .  A
C883        C884   1.403       .  A
C883        N888   1.428       .  S
C884        C885   1.409       .  A
C884        H889   1.084       .  S
C885        C886   1.420       .  A
C886        N890   1.429       .  S
C887        C892   1.411       .  A
C887        C896   1.403       .  A
N888        O903   1.262       .  A
N888        O904   1.262       .  A
N890        O901   1.262       .  A
N890        O902   1.262       .  A
C892        C893   1.404       .  A
C892        N897   1.429       .  S
C893        C894   1.408       .  A
C893        H898   1.084       .  S
C894        C895   1.419       .  A
C895        C896   1.408       .  A
C895        N899   1.428       .  S
C896        H900   1.084       .  S
N897        O907   1.262       .  A
N897        O908   1.261       .  A
N899        O905   1.262       .  A
N899        O906   1.262       .  A
C909        C910   1.405       .  A
C909        C914   1.408       .  A
C909        H919   1.083       .  S
C910        C915   1.503       .  S
C910        C911   1.414       .  A
C911        C912   1.407       .  A
C911        N916   1.428       .  S
C912        C913   1.407       .  A
C912        H917   1.083       .  S
C913        C914   1.420       .  A
C914        N918   1.429       .  S
C915        C920   1.413       .  A
C915        C924   1.405       .  A
N916        O931   1.262       .  A
N916        O932   1.262       .  A
N918        O929   1.262       .  A
N918        O930   1.262       .  A
C920        C921   1.405       .  A
C920        N925   1.429       .  S
C921        C922   1.410       .  A
C921        H926   1.083       .  S
C922        C923   1.421       .  A
C923        C924   1.409       .  A
C923        N927   1.429       .  S
C924        H928   1.083       .  S
N925        O935   1.262       .  A
N925        O936   1.262       .  A
N927        O933   1.262       .  A
N927        O934   1.262       .  A
C937        C938   1.402       .  A
C937        C942   1.399       .  A
C937        H947   1.083       .  S
C938        C943   1.490       .  S
C938        C939   1.414       .  A
C939        C940   1.400       .  A
C939        N944   1.429       .  S
C940        C941   1.405       .  A
C940        H945   1.084       .  S
C941        C942   1.417       .  A
C942        N946   1.429       .  S
C943        C948   1.415       .  A
C943        C952   1.403       .  A
N944        O959   1.262       .  A
N944        O960   1.261       .  A
N946        O957   1.262       .  A
N946        O958   1.261       .  A
C948        C949   1.399       .  A
C948        N953   1.430       .  S
C949        C950   1.402       .  A
C949        H954   1.084       .  S
C950        C951   1.414       .  A
C951        C952   1.401       .  A
C951        N955   1.429       .  S
C952        H956   1.083       .  S
N953        O963   1.262       .  A
N953        O964   1.262       .  A
N955        O961   1.262       .  A
N955        O962   1.262       .  A
C965        C966   1.400       .  A
C965        C970   1.399       .  A
C965        H975   1.084       .  S
C966        C971   1.475       .  S
C966        C967   1.407       .  A
C967        C968   1.397       .  A
C967        N972   1.428       .  S
C968        C969   1.405       .  A
C968        H973   1.084       .  S
C969        C970   1.416       .  A
C970        N974   1.429       .  S
C971        C976   1.407       .  A
C971        C980   1.398       .  A
N972        O987   1.262       .  A
N972        O988   1.262       .  A
N974        O985   1.262       .  A
N974        O986   1.262       .  A
C976        C977   1.398       .  A
C976        N981   1.429       .  S
C977        C978   1.408       .  A
C977        H982   1.083       .  S
C978        C979   1.419       .  A
C979        C980   1.398       .  A
C979        N983   1.428       .  S
C980        H984   1.084       .  S
N981        O991   1.262       .  A
N981        O992   1.262       .  A
N983        O989   1.261       .  A
N983        O990   1.262       .  A
C993        C994   1.400       .  A
C993        C998   1.397       .  A
C993       H1003   1.084       .  S
C994        C999   1.471       .  S
C994        C995   1.407       .  A
C995        C996   1.395       .  A
C995       N1000   1.428       .  S
C996        C997   1.402       .  A
C996       H1001   1.084       .  S
C997        C998   1.413       .  A
C998       N1002   1.429       .  S
C999       C1004   1.406       .  A
C999       C1008   1.398       .  A
N1000      O1015   1.262       .  A
N1000      O1016   1.261       .  A
N1002      O1013   1.261       .  A
N1002      O1014   1.262       .  A
C1004      C1005   1.399       .  A
C1004      N1009   1.428       .  S
C1005      C1006   1.405       .  A
C1005      H1010   1.084       .  S
C1006      C1007   1.415       .  A
C1007      C1008   1.394       .  A
C1007      N1011   1.430       .  S
C1008      H1012   1.085       .  S
N1009      O1019   1.262       .  A
N1009      O1020   1.261       .  A
N1011      O1017   1.262       .  A
N1011      O1018   1.262       .  A
C1021      C1022   1.401       .  A
C1021      C1026   1.396       .  A
C1021      H1031   1.084       .  S
C1022      C1027   1.473       .  S
C1022      C1023   1.408       .  A
C1023      C1024   1.395       .  A
C1023      N1028   1.429       .  S
C1024      C1025   1.405       .  A
C1024      H1029   1.084       .  S
C1025      C1026   1.413       .  A
C1026      N1030   1.429       .  S
C1027      C1032   1.409       .  A
C1027      C1036   1.402       .  A
N1028      O1043   1.262       .  A
N1028      O1044   1.261       .  A
N1030      O1041   1.262       .  A
N1030      O1042   1.262       .  A
C1032      C1033   1.395       .  A
C1032      N1037   1.428       .  S
C1033      C1034   1.401       .  A
C1033      H1038   1.084       .  S
C1034      C1035   1.408       .  A
C1035      C1036   1.394       .  A
C1035      N1039   1.427       .  S
C1036      H1040   1.084       .  S
N1037      O1047   1.262       .  A
N1037      O1048   1.262       .  A
N1039      O1045   1.261       .  A
N1039      O1046   1.262       .  A
C1049      C1050   1.402       .  A
C1049      C1054   1.408       .  A
C1049      H1059   1.084       .  S
C1050      C1055   1.482       .  S
C1050      C1051   1.405       .  A
C1051      C1052   1.397       .  A
C1051      N1056   1.429       .  S
C1052      C1053   1.409       .  A
C1052      H1057   1.083       .  S
C1053      C1054   1.419       .  A
C1054      N1058   1.428       .  S
C1055      C1060   1.407       .  A
C1055      C1064   1.402       .  A
N1056      O1071   1.262       .  A
N1056      O1072   1.261       .  A
N1058      O1069   1.262       .  A
N1058      O1070   1.262       .  A
C1060      C1061   1.400       .  A
C1060      N1065   1.428       .  S
C1061      C1062   1.407       .  A
C1061      H1066   1.084       .  S
C1062      C1063   1.414       .  A
C1063      C1064   1.404       .  A
C1063      N1067   1.428       .  S
C1064      H1068   1.084       .  S
N1065      O1075   1.262       .  A
N1065      O1076   1.262       .  A
N1067      O1073   1.262       .  A
N1067      O1074   1.262       .  A
C1077      C1078   1.403       .  A
C1077      C1082   1.392       .  A
C1077      H1087   1.084       .  S
C1078      C1083   1.468       .  S
C1078      C1079   1.406       .  A
C1079      C1080   1.396       .  A
C1079      N1084   1.428       .  S
C1080      C1081   1.401       .  A
C1080      H1085   1.080       .  S
C1081      C1082   1.405       .  A
C1082      N1086   1.429       .  S
C1083      C1088   1.405       .  A
C1083      C1092   1.402       .  A
N1084      O1099   1.262       .  A
N1084      O1100   1.262       .  A
N1086      O1097   1.262       .  A
N1086      O1098   1.261       .  A
C1088      C1089   1.392       .  A
C1088      N1093   1.429       .  S
C1089      C1090   1.403       .  A
C1089      H1094   1.084       .  S
C1090      C1091   1.413       .  A
C1091      C1092   1.399       .  A
C1091      N1095   1.430       .  S
C1092      H1096   1.084       .  S
N1093      O1103   1.262       .  A
N1093      O1104   1.262       .  A
N1095      O1101   1.262       .  A
N1095      O1102   1.262       .  A
C1105      C1106   1.400       .  A
C1105      C1110   1.394       .  A
C1105      H1115   1.084       .  S
C1106      C1111   1.465       .  S
C1106      C1107   1.402       .  A
C1107      C1108   1.396       .  A
C1107      N1112   1.428       .  S
C1108      C1109   1.407       .  A
C1108      H1113   1.084       .  S
C1109      C1110   1.411       .  A
C1110      N1114   1.429       .  S
C1111      C1116   1.402       .  A
C1111      C1120   1.401       .  A
N1112      O1127   1.262       .  A
N1112      O1128   1.262       .  A
N1114      O1125   1.262       .  A
N1114      O1126   1.262       .  A
C1116      C1117   1.386       .  A
C1116      N1121   1.430       .  S
C1117      C1118   1.408       .  A
C1117      H1122   1.084       .  S
C1118      C1119   1.414       .  A
C1119      C1120   1.401       .  A
C1119      N1123   1.428       .  S
C1120      H1124   1.084       .  S
N1121      O1131   1.262       .  A
N1121      O1132   1.262       .  A
N1123      O1129   1.262       .  A
N1123      O1130   1.262       .  A
C1133      C1134   1.398       .  A
C1133      C1138   1.396       .  A
C1133      H1143   1.084       .  S
C1134      C1139   1.466       .  S
C1134      C1135   1.405       .  A
C1135      C1136   1.391       .  A
C1135      N1140   1.429       .  S
C1136      C1137   1.403       .  A
C1136      H1141   1.084       .  S
C1137      C1138   1.418       .  A
C1138      N1142   1.430       .  S
C1139      C1144   1.407       .  A
C1139      C1148   1.400       .  A
N1140      O1155   1.262       .  A
N1140      O1156   1.262       .  A
N1142      O1153   1.262       .  A
N1142      O1154   1.261       .  A
C1144      C1145   1.390       .  A
C1144      N1149   1.429       .  S
C1145      C1146   1.399       .  A
C1145      H1150   1.085       .  S
C1146      C1147   1.408       .  A
C1147      C1148   1.396       .  A
C1147      N1151   1.426       .  S
C1148      H1152   1.084       .  S
N1149      O1159   1.262       .  A
N1149      O1160   1.262       .  A
N1151      O1157   1.262   1_565  A
N1151      O1158   1.262       .  A
C1161      C1162   1.400       .  A
C1161      C1166   1.402       .  A
C1161      H1171   1.084       .  S
C1162      C1167   1.477       .  S
C1162      C1163   1.404       .  A
C1163      C1164   1.397       .  A
C1163      N1168   1.428       .  S
C1164      C1165   1.409       .  A
C1164      H1169   1.083       .  S
C1165      C1166   1.418       .  A
C1166      N1170   1.428       .  S
C1167      C1172   1.406       .  A
C1167      C1176   1.402       .  A
N1168      O1183   1.262       .  A
N1168      O1184   1.262       .  A
N1170      O1181   1.261       .  A
N1170      O1182   1.262       .  A
C1172      C1173   1.395       .  A
C1172      N1177   1.429       .  S
C1173      C1174   1.403       .  A
C1173      H1178   1.084       .  S
C1174      C1175   1.413       .  A
C1175      C1176   1.404       .  A
C1175      N1179   1.428       .  S
C1176      H1180   1.084       .  S
N1177      O1187   1.262       .  A
N1177      O1188   1.262       .  A
N1179      O1185   1.262   1_554  A
N1179      O1186   1.262       .  A
C1189      C1190   1.404       .  A
C1189      C1194   1.406       .  A
C1189      H1199   1.084       .  S
C1190      C1195   1.485       .  S
C1190      C1191   1.408       .  A
C1191      C1192   1.399       .  A
C1191      N1196   1.429       .  S
C1192      C1193   1.409       .  A
C1192      H1197   1.084       .  S
C1193      C1194   1.415       .  A
C1194      N1198   1.428       .  S
C1195      C1200   1.410       .  A
C1195      C1204   1.400       .  A
N1196      O1211   1.262       .  A
N1196      O1212   1.262       .  A
N1198      O1209   1.261       .  A
N1198      O1210   1.260       .  A
C1200      C1201   1.403       .  A
C1200      N1205   1.429       .  S
C1201      C1202   1.407       .  A
C1201      H1206   1.083       .  S
C1202      C1203   1.419       .  A
C1203      C1204   1.401       .  A
C1203      N1207   1.429       .  S
C1204      H1208   1.084       .  S
N1205      O1215   1.262       .  A
N1205      O1216   1.262       .  A
N1207      O1213   1.262       .  A
N1207      O1214   1.262       .  A
C1217      C1218   1.402       .  A
C1217      C1222   1.396       .  A
C1217      H1227   1.084       .  S
C1218      C1223   1.467       .  S
C1218      C1219   1.406       .  A
C1219      C1220   1.392       .  A
C1219      N1224   1.429       .  S
C1220      C1221   1.401       .  A
C1220      H1225   1.084       .  S
C1221      C1222   1.410       .  A
C1222      N1226   1.430       .  S
C1223      C1228   1.403       .  A
C1223      C1232   1.396       .  A
N1224      O1239   1.262       .  A
N1224      O1240   1.262       .  A
N1226      O1237   1.262       .  A
N1226      O1238   1.262       .  A
C1228      C1229   1.395       .  A
C1228      N1233   1.428       .  S
C1229      C1230   1.406       .  A
C1229      H1234   1.083       .  S
C1230      C1231   1.419       .  A
C1231      C1232   1.394       .  A
C1231      N1235   1.428       .  S
C1232      H1236   1.084       .  S
N1233      O1243   1.262       .  A
N1233      O1244   1.262       .  A
N1235      O1241   1.261       .  A
N1235      O1242   1.262       .  A
C1245      C1246   1.400       .  A
C1245      C1250   1.404       .  A
C1245      H1255   1.084       .  S
C1246      C1251   1.482       .  S
C1246      C1247   1.405       .  A
C1247      C1248   1.402       .  A
C1247      N1252   1.428       .  S
C1248      C1249   1.411       .  A
C1248      H1253   1.084       .  S
C1249      C1250   1.420       .  A
C1250      N1254   1.429       .  S
C1251      C1256   1.406       .  A
C1251      C1260   1.401       .  A
N1252      O1267   1.262       .  A
N1252      O1268   1.262       .  A
N1254      O1265   1.262       .  A
N1254      O1266   1.262       .  A
C1256      C1257   1.402       .  A
C1256      N1261   1.428       .  S
C1257      C1258   1.407       .  A
C1257      H1262   1.084       .  S
C1258      C1259   1.416       .  A
C1259      C1260   1.403       .  A
C1259      N1263   1.429       .  S
C1260      H1264   1.084       .  S
N1261      O1271   1.261       .  A
N1261      O1272   1.262       .  A
N1263      O1269   1.262       .  A
N1263      O1270   1.262       .  A
C1273      C1274   1.402       .  A
C1273      C1278   1.396       .  A
C1273      H1283   1.084       .  S
C1274      C1279   1.472       .  S
C1274      C1275   1.408       .  A
C1275      C1276   1.393       .  A
C1275      N1280   1.428       .  S
C1276      C1277   1.400       .  A
C1276      H1281   1.084       .  S
C1277      C1278   1.412       .  A
C1278      N1282   1.430       .  S
C1279      C1284   1.407       .  A
C1279      C1288   1.401       .  A
N1280      O1295   1.262       .  A
N1280      O1296   1.262       .  A
N1282      O1293   1.262       .  A
N1282      O1294   1.262       .  A
C1284      C1285   1.393       .  A
C1284      N1289   1.430       .  S
C1285      C1286   1.405       .  A
C1285      H1290   1.084       .  S
C1286      C1287   1.412       .  A
C1287      C1288   1.399       .  A
C1287      N1291   1.428       .  S
C1288      H1292   1.084       .  S
N1289      O1299   1.262       .  A
N1289      O1300   1.262       .  A
N1291      O1297   1.262       .  A
N1291      O1298   1.262       .  A
C1301      C1302   1.405       .  A
C1301      C1306   1.407       .  A
C1301      H1311   1.082       .  S
C1302      C1307   1.502       .  S
C1302      C1303   1.415       .  A
C1303      C1304   1.403       .  A
C1303      N1308   1.429       .  S
C1304      C1305   1.407       .  A
C1304      H1309   1.083       .  S
C1305      C1306   1.420       .  A
C1306      N1310   1.429       .  S
C1307      C1312   1.416       .  A
C1307      C1316   1.405       .  A
N1308      O1323   1.262       .  A
N1308      O1324   1.262       .  A
N1310      O1321   1.262       .  A
N1310      O1322   1.262       .  A
C1312      C1313   1.405       .  A
C1312      N1317   1.430       .  S
C1313      C1314   1.409       .  A
C1313      H1318   1.083       .  S
C1314      C1315   1.416       .  A
C1315      C1316   1.405       .  A
C1315      N1319   1.428       .  S
C1316      H1320   1.083       .  S
N1317      O1327   1.262       .  A
N1317      O1328   1.262       .  A
N1319      O1325   1.262       .  A
N1319      O1326   1.262       .  A
C1329      C1330   1.405       .  A
C1329      C1334   1.404       .  A
C1329      H1339   1.084       .  S
C1330      C1335   1.495       .  S
C1330      C1331   1.412       .  A
C1331      C1332   1.403       .  A
C1331      N1336   1.429       .  S
C1332      C1333   1.406       .  A
C1332      H1337   1.083       .  S
C1333      C1334   1.417       .  A
C1334      N1338   1.429       .  S
C1335      C1340   1.413       .  A
C1335      C1344   1.406       .  A
N1336      O1351   1.262       .  A
N1336      O1352   1.262       .  A
N1338      O1349   1.262       .  A
N1338      O1350   1.262       .  A
C1340      C1341   1.401       .  A
C1340      N1345   1.430       .  S
C1341      C1342   1.405       .  A
C1341      H1346   1.082       .  S
C1342      C1343   1.412       .  A
C1343      C1344   1.404       .  A
C1343      N1347   1.428       .  S
C1344      H1348   1.082       .  S
N1345      O1355   1.262       .  A
N1345      O1356   1.262       .  A
N1347      O1353   1.262       .  A
N1347      O1354   1.262       .  A
C1357      C1358   1.403       .  A
C1357      C1362   1.404       .  A
C1357      H1367   1.083       .  S
C1358      C1363   1.497       .  S
C1358      C1359   1.413       .  A
C1359      C1360   1.405       .  A
C1359      N1364   1.428       .  S
C1360      C1361   1.407       .  A
C1360      H1365   1.083       .  S
C1361      C1362   1.418       .  A
C1362      N1366   1.429       .  S
C1363      C1368   1.413       .  A
C1363      C1372   1.403       .  A
N1364      O1379   1.262       .  A
N1364      O1380   1.262       .  A
N1366      O1377   1.262       .  A
N1366      O1378   1.262       .  A
C1368      C1369   1.403       .  A
C1368      N1373   1.429       .  S
C1369      C1370   1.408       .  A
C1369      H1374   1.083       .  S
C1370      C1371   1.421       .  A
C1371      C1372   1.407       .  A
C1371      N1375   1.429       .  S
C1372      H1376   1.083       .  S
N1373      O1383   1.262       .  A
N1373      O1384   1.262       .  A
N1375      O1381   1.262       .  A
N1375      O1382   1.262       .  A
C1385      C1386   1.402       .  A
C1385      C1390   1.400       .  A
C1385      H1395   1.084       .  S
C1386      C1391   1.477       .  S
C1386      C1387   1.406       .  A
C1387      C1388   1.396       .  A
C1387      N1392   1.429       .  S
C1388      C1389   1.407       .  A
C1388      H1393   1.084       .  S
C1389      C1390   1.414       .  A
C1390      N1394   1.428       .  S
C1391      C1396   1.408       .  A
C1391      C1400   1.402       .  A
N1392      O1407   1.262       .  A
N1392      O1408   1.262       .  A
N1394      O1405   1.262       .  A
N1394      O1406   1.262       .  A
C1396      C1397   1.394       .  A
C1396      N1401   1.429       .  S
C1397      C1398   1.403       .  A
C1397      H1402   1.084       .  S
C1398      C1399   1.416       .  A
C1399      C1400   1.403       .  A
C1399      N1403   1.429       .  S
C1400      H1404   1.084       .  S
N1401      O1411   1.262       .  A
N1401      O1412   1.262       .  A
N1403      O1409   1.261       .  A
N1403      O1410   1.262       .  A
C1413      C1414   1.404       .  A
C1413      C1418   1.410       .  A
C1413      H1423   1.084       .  S
C1414      C1419   1.499       .  S
C1414      C1415   1.411       .  A
C1415      C1416   1.404       .  A
C1415      N1420   1.428       .  S
C1416      C1417   1.409       .  A
C1416      H1421   1.083       .  S
C1417      C1418   1.423       .  A
C1418      N1422   1.429       .  S
C1419      C1424   1.412       .  A
C1419      C1428   1.403       .  A
N1420      O1435   1.262       .  A
N1420      O1436   1.262       .  A
N1422      O1433   1.262       .  A
N1422      O1434   1.262       .  A
C1424      C1425   1.407       .  A
C1424      N1429   1.429       .  S
C1425      C1426   1.410       .  A
C1425      H1430   1.083       .  S
C1426      C1427   1.420       .  A
C1427      C1428   1.409       .  A
C1427      N1431   1.428       .  S
C1428      H1432   1.084       .  S
N1429      O1439   1.262       .  A
N1429      O1440   1.262       .  A
N1431      O1437   1.262       .  A
N1431      O1438   1.262       .  A
C1441      C1442   1.401       .  A
C1441      C1446   1.400       .  A
C1441      H1451   1.084       .  S
C1442      C1447   1.481       .  S
C1442      C1443   1.409       .  A
C1443      C1444   1.397       .  A
C1443      N1448   1.428       .  S
C1444      C1445   1.405       .  A
C1444      H1449   1.084       .  S
C1445      C1446   1.417       .  A
C1446      N1450   1.429       .  S
C1447      C1452   1.410       .  A
C1447      C1456   1.402       .  A
N1448      O1463   1.262       .  A
N1448      O1464   1.262       .  A
N1450      O1461   1.262       .  A
N1450      O1462   1.262       .  A
C1452      C1453   1.398       .  A
C1452      N1457   1.428       .  S
C1453      C1454   1.402       .  A
C1453      H1458   1.084       .  S
C1454      C1455   1.414       .  A
C1455      C1456   1.401       .  A
C1455      N1459   1.429       .  S
C1456      H1460   1.084       .  S
N1457      O1467   1.262       .  A
N1457      O1468   1.262       .  A
N1459      O1465   1.262       .  A
N1459      O1466   1.262       .  A
C1469      C1470   1.401       .  A
C1469      C1474   1.397       .  A
C1469      H1479   1.084       .  S
C1470      C1475   1.470       .  S
C1470      C1471   1.409       .  A
C1471      C1472   1.395       .  A
C1471      N1476   1.429       .  S
C1472      C1473   1.400       .  A
C1472      H1477   1.084       .  S
C1473      C1474   1.411       .  A
C1474      N1478   1.429       .  S
C1475      C1480   1.408       .  A
C1475      C1484   1.397       .  A
N1476      O1491   1.262       .  A
N1476      O1492   1.262       .  A
N1478      O1489   1.262       .  A
N1478      O1490   1.262       .  A
C1480      C1481   1.398       .  A
C1480      N1485   1.429       .  S
C1481      C1482   1.404       .  A
C1481      H1486   1.084       .  S
C1482      C1483   1.414       .  A
C1483      C1484   1.394       .  A
C1483      N1487   1.427       .  S
C1484      H1488   1.085       .  S
N1485      O1495   1.262       .  A
N1485      O1496   1.261       .  A
N1487      O1493   1.261       .  A
N1487      O1494   1.262       .  A
C1497      C1498   1.401       .  A
C1497      C1502   1.401       .  A
C1497      H1507   1.084       .  S
C1498      C1503   1.470       .  S
C1498      C1499   1.406       .  A
C1499      C1500   1.389       .  A
C1499      N1504   1.430       .  S
C1500      C1501   1.407       .  A
C1500      H1505   1.084       .  S
C1501      C1502   1.416       .  A
C1502      N1506   1.429       .  S
C1503      C1508   1.405       .  A
C1503      C1512   1.399       .  A
N1504      O1519   1.262       .  A
N1504      O1520   1.262       .  A
N1506      O1517   1.262       .  A
N1506      O1518   1.262       .  A
C1508      C1509   1.397       .  A
C1508      N1513   1.429       .  S
C1509      C1510   1.409       .  A
C1509      H1514   1.084       .  S
C1510      C1511   1.414       .  A
C1511      C1512   1.394       .  A
C1511      N1515   1.428       .  S
C1512      H1516   1.084       .  S
N1513      O1523   1.262       .  A
N1513      O1524   1.262       .  A
N1515      O1521   1.262       .  A
N1515      O1522   1.262       .  A
C1525      C1526   1.405       .  A
C1525      C1530   1.398       .  A
C1525      H1535   1.082       .  S
C1526      C1531   1.487       .  S
C1526      C1527   1.414       .  A
C1527      C1528   1.398       .  A
C1527      N1532   1.429       .  S
C1528      C1529   1.401       .  A
C1528      H1533   1.084       .  S
C1529      C1530   1.407       .  A
C1530      N1534   1.429       .  S
C1531      C1536   1.413       .  A
C1531      C1540   1.406       .  A
N1532      O1547   1.262       .  A
N1532      O1548   1.262       .  A
N1534      O1545   1.262       .  A
N1534      O1546   1.262       .  A
C1536      C1537   1.397       .  A
C1536      N1541   1.430       .  S
C1537      C1538   1.403       .  A
C1537      H1542   1.084       .  S
C1538      C1539   1.411       .  A
C1539      C1540   1.401       .  A
C1539      N1543   1.429       .  S
C1540      H1544   1.083       .  S
N1541      O1551   1.262       .  A
N1541      O1552   1.262       .  A
N1543      O1549   1.262       .  A
N1543      O1550   1.262       .  A
C1553      C1554   1.399       .  A
C1553      C1558   1.401       .  A
C1553      H1563   1.084       .  S
C1554      C1559   1.468       .  S
C1554      C1555   1.405       .  A
C1555      C1556   1.394       .  A
C1555      N1560   1.429       .  S
C1556      C1557   1.404       .  A
C1556      H1561   1.084       .  S
C1557      C1558   1.417       .  A
C1558      N1562   1.429       .  S
C1559      C1564   1.403       .  A
C1559      C1568   1.400       .  A
N1560      O1575   1.262       .  A
N1560      O1576   1.262       .  A
N1562      O1573   1.262   1_554  A
N1562      O1574   1.262       .  A
C1564      C1565   1.391       .  A
C1564      N1569   1.429       .  S
C1565      C1566   1.408       .  A
C1565      H1570   1.084       .  S
C1566      C1567   1.414       .  A
C1567      C1568   1.401       .  A
C1567      N1571   1.428       .  S
C1568      H1572   1.084       .  S
N1569      O1579   1.262       .  A
N1569      O1580   1.262       .  A
N1571      O1577   1.262       .  A
N1571      O1578   1.262       .  A
C1581      C1582   1.395       .  A
C1581      C1586   1.394       .  A
C1581      H1591   1.084       .  S
C1582      C1587   1.461       .  S
C1582      C1583   1.408       .  A
C1583      C1584   1.396       .  A
C1583      N1588   1.429       .  S
C1584      C1585   1.401       .  A
C1584      H1589   1.084       .  S
C1585      C1586   1.414       .  A
C1586      N1590   1.429       .  S
C1587      C1592   1.403       .  A
C1587      C1596   1.399       .  A
N1588      O1603   1.262       .  A
N1588      O1604   1.261       .  A
N1590      O1601   1.262       .  A
N1590      O1602   1.262       .  A
C1592      C1593   1.390       .  A
C1592      N1597   1.428       .  S
C1593      C1594   1.403       .  A
C1593      H1598   1.084   1_554  S
C1594      C1595   1.412       .  A
C1595      C1596   1.396       .  A
C1595      N1599   1.429       .  S
C1596      H1600   1.084       .  S
N1597      O1607   1.262       .  A
N1597      O1608   1.261       .  A
N1599      O1605   1.262       .  A
N1599      O1606   1.260       .  A
C1609      C1610   1.393       .  A
C1609      C1614   1.394       .  A
C1609      H1619   1.084       .  S
C1610      C1615   1.460       .  S
C1610      C1611   1.402       .  A
C1611      C1612   1.398       .  A
C1611      N1616   1.431       .  S
C1612      C1613   1.410       .  A
C1612      H1617   1.083       .  S
C1613      C1614   1.418       .  A
C1614      N1618   1.428       .  S
C1615      C1620   1.402       .  A
C1615      C1624   1.398       .  A
N1616      O1631   1.262       .  A
N1616      O1632   1.262       .  A
N1618      O1629   1.262       .  A
N1618      O1630   1.262       .  A
C1620      C1621   1.392       .  A
C1620      N1625   1.428       .  S
C1621      C1622   1.404       .  A
C1621      H1626   1.084       .  S
C1622      C1623   1.412       .  A
C1623      C1624   1.393       .  A
C1623      N1627   1.429       .  S
C1624      H1628   1.084       .  S
N1625      O1635   1.262       .  A
N1625      O1636   1.262       .  A
N1627      O1633   1.262       .  A
N1627      O1634   1.262       .  A
C1637      C1638   1.404       .  A
C1637      C1642   1.406       .  A
C1637      H1647   1.084       .  S
C1638      C1643   1.485       .  S
C1638      C1639   1.408       .  A
C1639      C1640   1.397       .  A
C1639      N1644   1.428       .  S
C1640      C1641   1.405       .  A
C1640      H1645   1.084       .  S
C1641      C1642   1.415       .  A
C1642      N1646   1.428       .  S
C1643      C1648   1.409       .  A
C1643      C1652   1.400       .  A
N1644      O1659   1.262       .  A
N1644      O1660   1.262       .  A
N1646      O1657   1.262       .  A
N1646      O1658   1.262       .  A
C1648      C1649   1.402       .  A
C1648      N1653   1.428       .  S
C1649      C1650   1.407       .  A
C1649      H1654   1.083       .  S
C1650      C1651   1.419       .  A
C1651      C1652   1.401       .  A
C1651      N1655   1.429       .  S
C1652      H1656   1.084       .  S
N1653      O1663   1.262       .  A
N1653      O1664   1.262       .  A
N1655      O1661   1.262       .  A
N1655      O1662   1.262       .  A
C1665      C1666   1.400       .  A
C1665      C1670   1.403       .  A
C1665      H1675   1.084       .  S
C1666      C1671   1.473       .  S
C1666      C1667   1.404       .  A
C1667      C1668   1.394       .  A
C1667      N1672   1.428       .  S
C1668      C1669   1.407       .  A
C1668      H1673   1.083       .  S
C1669      C1670   1.420       .  A
C1670      N1674   1.430       .  S
C1671      C1676   1.407       .  A
C1671      C1680   1.399       .  A
N1672      O1687   1.262       .  A
N1672      O1688   1.262       .  A
N1674      O1685   1.262       .  A
N1674      O1686   1.262       .  A
C1676      C1677   1.396       .  A
C1676      N1681   1.428       .  S
C1677      C1678   1.403       .  A
C1677      H1682   1.084       .  S
C1678      C1679   1.414       .  A
C1679      C1680   1.400       .  A
C1679      N1683   1.429       .  S
C1680      H1684   1.084       .  S
N1681      O1691   1.262       .  A
N1681      O1692   1.262       .  A
N1683      O1689   1.262       .  A
N1683      O1690   1.262       .  A
C1693      C1694   1.402       .  A
C1693      C1698   1.401       .  A
C1693      H1703   1.084       .  S
C1694      C1699   1.479       .  S
C1694      C1695   1.408       .  A
C1695      C1696   1.393       .  A
C1695      N1700   1.429       .  S
C1696      C1697   1.403       .  A
C1696      H1701   1.084       .  S
C1697      C1698   1.417       .  A
C1698      N1702   1.429       .  S
C1699      C1704   1.409       .  A
C1699      C1708   1.399       .  A
N1700      O1715   1.262       .  A
N1700      O1716   1.262       .  A
N1702      O1713   1.262       .  A
N1702      O1714   1.262       .  A
C1704      C1705   1.399       .  A
C1704      N1709   1.428       .  S
C1705      C1706   1.406       .  A
C1705      H1710   1.084       .  S
C1706      C1707   1.418       .  A
C1707      C1708   1.395       .  A
C1707      N1711   1.430       .  S
C1708      H1712   1.084       .  S
N1709      O1719   1.262       .  A
N1709      O1720   1.262       .  A
N1711      O1717   1.262       .  A
N1711      O1718   1.262       .  A
