geometry optimzed in LAMMPS
_audit_creation_date              2020-11-30 
_audit_creation_method            'lammps2cif' 
_symmetry_space_group_name_H-M    'P1' 
_symmetry_Int_Tables_number       1 
_symmetry_cell_setting            triclinic 
loop_ 
_symmetry_equiv_pos_as_xyz 
  x,y,z 
_cell_length_a                    55.71484892 
_cell_length_b                    55.83809077301605 
_cell_length_c                    31.119095575425234 
_cell_angle_alpha                 90.04845197525411 
_cell_angle_beta                  89.89290298592141 
_cell_angle_gamma                 89.90106583160978 
loop_ 
_atom_site_label 
_atom_site_type_symbol 
_atom_site_fract_x 
_atom_site_fract_y 
_atom_site_fract_z 
_atom_site_charge 
C1          C  0.88009518  0.72843508  0.45578922     0.86500
C2          C  0.86067807  0.74783288  0.45688247    -0.53800
C3          C  0.85963974  0.76098611  0.99329982     0.09400
C4          C  0.88046290  0.75434984  0.02379373     0.20400
C5          C  0.90346837  0.74219848  0.46476340    -0.54500
C6          C  0.90319396  0.75693477  0.99560081     0.09500
C7          C  0.87597291  0.71349765  0.49650603    -0.54000
C8          C  0.87801735  0.72712829  0.03109461     0.10100
H9          H  0.84809505  0.75081869  0.43077564     0.14600
H10         H  0.88063563  0.76462996  0.05427098     0.00300
H11         H  0.91857810  0.74288846  0.44310742     0.14900
H12         H  0.87596581  0.69467550  0.99410615     0.14700
O13         O  0.85143952  0.60984584  0.19922711    -0.72900
O14         O  0.85391825  0.66033906  0.29033696    -0.73900
O15         O  0.85378205  0.66066638  0.19835752    -0.62500
O16         O  0.85166783  0.60965229  0.29042935    -0.71000
O17         O  0.89136267  0.60800939  0.29032106    -0.70500
O18         O  0.89345140  0.65856786  0.19757632    -0.61800
O19         O  0.89368685  0.65870249  0.28901478    -0.74300
O20         O  0.89115755  0.60790295  0.19935296    -0.73100
Cu21       Cu  0.85131415  0.63526360  0.24457207     1.04600
Cu22       Cu  0.89377245  0.63329609  0.24403542     1.04300
C23         C  0.87095496  0.60067610  0.18516182     0.93300
C24         C  0.87425630  0.66721473  0.30459412     0.92400
C25         C  0.87394508  0.66744430  0.18282774     0.84500
C26         C  0.87118259  0.60067930  0.30493252     0.90800
C27         C  0.86039234  0.25996624  0.03631842     0.86500
C28         C  0.84124807  0.24043472  0.03566497    -0.53800
C29         C  0.84293313  0.22494854  0.00188309     0.09400
C30         C  0.86337588  0.22944713  0.47264860     0.20400
C31         C  0.88442800  0.24679186  0.03388569    -0.54500
C32         C  0.88634301  0.23080522  0.00102556     0.09500
C33         C  0.85839005  0.27221961  0.99231795    -0.54000
C34         C  0.86004340  0.25592235  0.45916699     0.10100
H35         H  0.82745868  0.23890872  0.06025960     0.14600
H36         H  0.86423509  0.21674803  0.44522355     0.00300
H37         H  0.89869035  0.24942864  0.05718322     0.14900
H38         H  0.85663981  0.29133493  0.98736786     0.14700
O39         O  0.84426453  0.37508983  0.29903765    -0.72900
O40         O  0.84071574  0.32778243  0.20409848    -0.73900
O41         O  0.84179271  0.32449413  0.29520943    -0.62500
O42         O  0.84350616  0.37791592  0.20838015    -0.71000
O43         O  0.88315346  0.37543388  0.20609618    -0.70500
O44         O  0.88150339  0.32259731  0.29470301    -0.61800
O45         O  0.88053618  0.32475818  0.20358226    -0.74300
O46         O  0.88400741  0.37360259  0.29735424    -0.73100
Cu47       Cu  0.84122292  0.35132201  0.25185124     1.04600
Cu48       Cu  0.88372305  0.34897852  0.25047236     1.04300
C49         C  0.86456782  0.38224385  0.31281938     0.93300
C50         C  0.86002819  0.31920570  0.18839621     0.92400
C51         C  0.86130970  0.31516411  0.30900095     0.84500
C52         C  0.86358092  0.38500418  0.19305560     0.90800
O53         O  0.84665360  0.46716518  0.04573080    -0.72900
O54         O  0.84895031  0.51803391  0.44937815    -0.73900
O55         O  0.84771882  0.46707204  0.45166039    -0.62500
O56         O  0.84758578  0.51800575  0.04322990    -0.71000
O57         O  0.88734087  0.51695564  0.04360812    -0.70500
O58         O  0.88748840  0.46619050  0.45238088    -0.61800
O59         O  0.88865945  0.51711129  0.45067291    -0.74300
O60         O  0.88637276  0.46619418  0.04573251    -0.73100
Cu61       Cu  0.84596509  0.49223028  0.99886764     1.04600
Cu62       Cu  0.88845147  0.49122346  0.99916538     1.04300
C63         C  0.86632878  0.45867360  0.06052307     0.93300
C64         C  0.86915906  0.52572071  0.43547029     0.92400
C65         C  0.86752937  0.45831428  0.43814391     0.84500
C66         C  0.86759899  0.52570070  0.05750656     0.90800
C67         C  0.74737516  0.84794410  0.04078955     0.86500
C68         C  0.76743759  0.82925715  0.04130480    -0.53800
C69         C  0.78361873  0.83111660  0.00842771     0.09400
C70         C  0.77873231  0.85245821  0.47523066     0.20400
C71         C  0.76016685  0.87213526  0.03946898    -0.54500
C72         C  0.77676541  0.87435020  0.00755863     0.09500
C73         C  0.73607825  0.84567999  0.99594660    -0.54000
C74         C  0.75235332  0.84905117  0.46072174     0.10100
H75         H  0.76876862  0.81573846  0.06627592     0.14600
H76         H  0.79154490  0.85431641  0.44811232     0.00300
H77         H  0.75692732  0.88619459  0.06295584     0.14900
H78         H  0.71713369  0.84328546  0.98966685     0.14700
O79         O  0.63272981  0.82565441  0.30462576    -0.72900
O80         O  0.67871495  0.82455285  0.20666635    -0.73900
O81         O  0.68371494  0.82564045  0.29811721    -0.62500
O82         O  0.62821318  0.82524013  0.21357893    -0.71000
O83         O  0.62890395  0.86486756  0.21265066    -0.70500
O84         O  0.68329699  0.86527472  0.29779131    -0.61800
O85         O  0.67962705  0.86436986  0.20679934    -0.74300
O86         O  0.63236560  0.86531868  0.30375992    -0.73100
Cu87       Cu  0.65588722  0.82388553  0.25588716     1.04600
Cu88       Cu  0.65608674  0.86632514  0.25528257     1.04300
C89         C  0.62491376  0.84551222  0.31939630     0.93300
C90         C  0.68610997  0.84427579  0.19097297     0.92400
C91         C  0.69215181  0.84560990  0.31165148     0.84500
C92         C  0.62000593  0.84513613  0.19925800     0.90800
C93         C  0.27701595  0.86472576  0.46016974     0.86500
C94         C  0.25740090  0.84555725  0.46158236    -0.53800
C95         C  0.24537790  0.84588580  0.00051300     0.09400
C96         C  0.25222418  0.86633120  0.03173552     0.20400
C97         C  0.26312748  0.88824568  0.46719653    -0.54500
C98         C  0.25012590  0.88931579  0.00414650     0.09500
C99         C  0.29147080  0.86119883  0.50153382    -0.54000
C100        C  0.27949939  0.86302781  0.03914933     0.10100
H101        H  0.25459439  0.83256273  0.43607364     0.14600
H102        H  0.24169306  0.86649633  0.06201340     0.00300
H103        H  0.26223854  0.90261002  0.44402630     0.14900
H104        H  0.31199404  0.86027180  0.00198937     0.14700
O105        O  0.34858032  0.87514178  0.20538709    -0.72900
O106        O  0.40094096  0.87095081  0.29509988    -0.73900
O107        O  0.39925377  0.87069127  0.20386234    -0.62500
O108        O  0.35029035  0.87549734  0.29660511    -0.71000
O109        O  0.34696659  0.83595428  0.29772762    -0.70500
O110        O  0.39648980  0.83112001  0.20418740    -0.61800
O111        O  0.39788144  0.83143600  0.29568118    -0.74300
O112        O  0.34570950  0.83557872  0.20550760    -0.73100
Cu113      Cu  0.37485911  0.87440236  0.25023007     1.04600
Cu114      Cu  0.37157708  0.83212933  0.25082382     1.04300
C115        C  0.33913384  0.85594720  0.19069562     0.93300
C116        C  0.40774432  0.85059788  0.30964585     0.92400
C117        C  0.40569633  0.85032171  0.18917174     0.84500
C118        C  0.34098946  0.85655073  0.31225397     0.90800
O119        O  0.48868815  0.86642009  0.04636449    -0.72900
O120        O  0.54144677  0.86560192  0.46184009    -0.73900
O121        O  0.49047740  0.86645894  0.45762579    -0.62500
O122        O  0.53955773  0.86603083  0.05010851    -0.71000
O123        O  0.53909798  0.82640975  0.04874612    -0.70500
O124        O  0.48972227  0.82685230  0.45569575    -0.61800
O125        O  0.54098428  0.82594451  0.46027472    -0.74300
O126        O  0.48809493  0.82675388  0.04507709    -0.73100
Cu127      Cu  0.51484245  0.86821331  0.00268848     1.04600
Cu128      Cu  0.51440754  0.82584017  0.00111383     1.04300
C129        C  0.48001563  0.84658864  0.05960923     0.93300
C130        C  0.54975827  0.84585323  0.44749779     0.92400
C131        C  0.48210223  0.84705610  0.44176402     0.84500
C132        C  0.54710734  0.84595381  0.06467725     0.90800
C133        C  0.73900298  0.12787364  0.46733861     0.86500
C134        C  0.75682351  0.14877462  0.46738382    -0.53800
C135        C  0.77192102  0.14965831  0.00066753     0.09400
C136        C  0.76890330  0.12908460  0.03344986     0.20400
C137        C  0.75494837  0.10544970  0.47066819    -0.54500
C138        C  0.77147154  0.10636515  0.00563804     0.09500
C139        C  0.72634544  0.12915481  0.51096349    -0.54000
C140        C  0.74198974  0.12965267  0.04632184     0.10100
H141        H  0.75750090  0.16224308  0.44222331     0.14600
H142        H  0.78156607  0.12990518  0.06092503     0.00300
H143        H  0.75483979  0.09052483  0.44878152     0.14900
H144        H  0.70728141  0.12872574  0.01588631     0.14700
O145        O  0.67202475  0.15754746  0.30257804    -0.72900
O146        O  0.62534578  0.16119493  0.20450034    -0.73900
O147        O  0.62171369  0.16242461  0.29578596    -0.62500
O148        O  0.67648366  0.15644374  0.21079891    -0.71000
O149        O  0.67204879  0.11704270  0.21092948    -0.70500
O150        O  0.61825479  0.12292180  0.29666065    -0.61800
O151        O  0.62149413  0.12172610  0.20635434    -0.74300
O152        O  0.66836912  0.11798231  0.30160720    -0.73100
Cu153      Cu  0.64909321  0.16083359  0.25324893     1.04600
Cu154      Cu  0.64498309  0.11860989  0.25384414     1.04300
C155        C  0.67718834  0.13696572  0.31793155     0.93300
C156        C  0.61554798  0.14196530  0.19070149     0.92400
C157        C  0.61149122  0.14351765  0.31001986     0.84500
C158        C  0.68279841  0.13574203  0.19708242     0.90800
C159        C  0.27043670  0.14190758  0.05043833     0.86500
C160        C  0.25006649  0.16030284  0.04982526    -0.53800
C161        C  0.23632956  0.15964557  0.01375916     0.09400
C162        C  0.24471391  0.14046919  0.47784058     0.20400
C163        C  0.25750466  0.11788410  0.04339685    -0.54500
C164        C  0.24387824  0.11674378  0.00702142     0.09500
C165        C  0.28451893  0.14614809  0.00875598    -0.54000
C166        C  0.27150010  0.14626561  0.47009550     0.10100
H167        H  0.24688410  0.17306773  0.07560498     0.14600
H168        H  0.23409792  0.13996091  0.44774193     0.00300
H169        H  0.25734841  0.10333821  0.06619669     0.14900
H170        H  0.30377048  0.14920827  0.00801029     0.14700
O171        O  0.39070301  0.17388219  0.30434563    -0.72900
O172        O  0.33992148  0.17160132  0.21268566    -0.73900
O173        O  0.33950173  0.17304935  0.30479603    -0.62500
O174        O  0.39075380  0.17261693  0.21262184    -0.71000
O175        O  0.39170238  0.13299609  0.21518688    -0.70500
O176        O  0.34014040  0.13338481  0.30582182    -0.61800
O177        O  0.34139815  0.13196968  0.21541281    -0.74300
O178        O  0.39080947  0.13422670  0.30577751    -0.73100
Cu179      Cu  0.36515884  0.17425010  0.25861964     1.04600
Cu180      Cu  0.36601657  0.13185652  0.26068020     1.04300
C181        C  0.39883979  0.15417639  0.31941722     0.93300
C182        C  0.33301304  0.15113191  0.19908046     0.92400
C183        C  0.33172999  0.15321039  0.31994419     0.84500
C184        C  0.39921867  0.15267304  0.19908155     0.90800
O185        O  0.48172177  0.16929409  0.05192158    -0.72900
O186        O  0.53232578  0.16967881  0.46007593    -0.73900
O187        O  0.48149946  0.17240890  0.46447603    -0.62500
O188        O  0.53289545  0.16699568  0.04963084    -0.71000
O189        O  0.53108959  0.12735063  0.04935168    -0.70500
O190        O  0.47959970  0.13278046  0.46338432    -0.61800
O191        O  0.53002553  0.13009689  0.45853263    -0.74300
O192        O  0.48018238  0.12966454  0.05161328    -0.73100
Cu193      Cu  0.50708546  0.16969786  0.00534875     1.04600
Cu194      Cu  0.50509886  0.12732457  0.00504478     1.04300
C195        C  0.47282984  0.14975280  0.06633171     0.93300
C196        C  0.53889431  0.14959915  0.44404204     0.92400
C197        C  0.47233973  0.15311619  0.44986586     0.84500
C198        C  0.54036375  0.14677083  0.06330178     0.90800
C199        C  0.15826684  0.73366738  0.04283595     0.86500
C200        C  0.17787216  0.75294195  0.04344276    -0.53800
C201        C  0.17695075  0.76868308  0.00991041     0.09400
C202        C  0.15382484  0.76325594  0.48048618     0.20400
C203        C  0.13499008  0.74838244  0.04114196    -0.54500
C204        C  0.13369937  0.76434027  0.00816685     0.09500
C205        C  0.16026105  0.72177892  0.99881827    -0.54000
C206        C  0.15729425  0.73664286  0.46780391     0.10100
H207        H  0.19066401  0.75496145  0.06944060     0.14600
H208        H  0.15222546  0.77553837  0.45261046     0.00300
H209        H  0.12099215  0.74731855  0.06530321     0.14900
H210        H  0.16224918  0.70255313  0.99465135     0.14700
O211        O  0.17857273  0.61894462  0.30872513    -0.72900
O212        O  0.17970744  0.66458744  0.20932119    -0.73900
O213        O  0.17950386  0.66960517  0.30118905    -0.62500
O214        O  0.17884425  0.61409323  0.21760513    -0.71000
O215        O  0.13913090  0.61493503  0.21745705    -0.70500
O216        O  0.13978794  0.67040695  0.30114271    -0.61800
O217        O  0.13995789  0.66519268  0.20994311    -0.74300
O218        O  0.13881673  0.61984794  0.30814187    -0.73100
Cu219      Cu  0.18055998  0.64187083  0.25927764     1.04600
Cu220      Cu  0.13808501  0.64270469  0.25921228     1.04300
C221        C  0.15842241  0.61191952  0.32377936     0.93300
C222        C  0.15983309  0.67152036  0.19305127     0.92400
C223        C  0.15978299  0.67846703  0.31520820     0.84500
C224        C  0.15884575  0.60580370  0.20399358     0.90800
C225        C  0.14205240  0.26613504  0.46456120     0.86500
C226        C  0.16313914  0.24847656  0.46462144    -0.53800
C227        C  0.16345121  0.23284557  0.00058330     0.09400
C228        C  0.14191730  0.23708218  0.03116703     0.20400
C229        C  0.12003825  0.24986553  0.46888454    -0.54500
C230        C  0.11986349  0.23423684  0.00170678     0.09500
C231        C  0.14354617  0.27939481  0.50747524    -0.54000
C232        C  0.14280229  0.26413581  0.04187582     0.10100
H233        H  0.17562871  0.24708203  0.43790410     0.14600
H234        H  0.14172497  0.22522260  0.05979424     0.00300
H235        H  0.10568880  0.24856277  0.44567286     0.14900
H236        H  0.14362649  0.29797541  0.00875297     0.14700
O237        O  0.17068391  0.38063643  0.20273508    -0.72900
O238        O  0.16714766  0.33454323  0.30016956    -0.73900
O239        O  0.16719232  0.33002948  0.20850787    -0.62500
O240        O  0.17044636  0.38507492  0.29339990    -0.71000
O241        O  0.13080069  0.38761048  0.29297417    -0.70500
O242        O  0.12758847  0.33313970  0.20760187    -0.61800
O243        O  0.12743249  0.33708522  0.29887139    -0.74300
O244        O  0.13100584  0.38357471  0.20226444    -0.73100
Cu245      Cu  0.17024661  0.35739486  0.25121081     1.04600
Cu246      Cu  0.12784197  0.36036693  0.25042647     1.04300
C247        C  0.15147216  0.38969439  0.18745609     0.93300
C248        C  0.14667085  0.32876755  0.31537522     0.92400
C249        C  0.14685335  0.32322934  0.19382205     0.84500
C250        C  0.15111148  0.39512238  0.30657180     0.90800
O251        O  0.17821077  0.52312928  0.05648973    -0.72900
O252        O  0.17426658  0.47646456  0.45326353    -0.73900
O253        O  0.17650895  0.52723159  0.46324521    -0.62500
O254        O  0.17581605  0.47239582  0.04809448    -0.71000
O255        O  0.13608132  0.47428966  0.04756537    -0.70500
O256        O  0.13675667  0.52864271  0.46365445    -0.61800
O257        O  0.13458160  0.47802018  0.45420825    -0.74300
O258        O  0.13852411  0.52482236  0.05596176    -0.73100
Cu259      Cu  0.17877210  0.49956400  0.00677786     1.04600
Cu260      Cu  0.13632011  0.50152181  0.00646508     1.04300
C261        C  0.15858773  0.53155804  0.07180701     0.93300
C262        C  0.15402669  0.46976758  0.43797678     0.92400
C263        C  0.15691381  0.53680719  0.45073119     0.84500
C264        C  0.15545820  0.46464799  0.06084762     0.90800
O265        O  0.12487543  0.97435003  0.47047591    -0.72900
O266        O  0.17408973  0.02592260  0.46502177    -0.73900
O267        O  0.17575257  0.97494482  0.47211824    -0.62500
O268        O  0.12346033  0.02491524  0.46603001    -0.71000
O269        O  0.12449325  0.02764416  0.03518399    -0.70500
O270        O  0.17388375  0.97622614  0.04200518    -0.61800
O271        O  0.17530664  0.02707962  0.03457208    -0.74300
O272        O  0.12344742  0.97720123  0.04025203    -0.73100
Cu273      Cu  0.14963028  0.99992740  0.46593544     1.04600
Cu274      Cu  0.14933783  0.00216357  0.04046833     1.04300
C275        C  0.11613593  0.96774914  0.00519678     0.93300
C276        C  0.18213401  0.03476856  0.99781469     0.92400
C277        C  0.18258053  0.96740786  0.00758979     0.84500
C278        C  0.11555969  0.03412667  0.99929853     0.90800
O279        O  0.98034774  0.16272046  0.46344738    -0.72900
O280        O  0.03144484  0.11241594  0.46684929    -0.73900
O281        O  0.98069317  0.11210185  0.46573443    -0.62500
O282        O  0.03205850  0.16270440  0.46700438    -0.71000
O283        O  0.03007544  0.16296880  0.03873763    -0.70500
O284        O  0.97992212  0.11227308  0.03899291    -0.61800
O285        O  0.03078749  0.11252541  0.03863613    -0.74300
O286        O  0.97871744  0.16263167  0.03643484    -0.73100
Cu287      Cu  0.00615584  0.13761904  0.46323309     1.04600
Cu288      Cu  0.00482399  0.13772251  0.04066980     1.04300
C289        C  0.97043888  0.16991140  0.00034280     0.93300
C290        C  0.03879337  0.10423414  0.00300894     0.92400
C291        C  0.97177438  0.10383646  0.00384972     0.84500
C292        C  0.03935625  0.16971079  0.00329297     0.90800
O293        O  0.99015819  0.83094309  0.04551060    -0.72900
O294        O  0.03873005  0.88323781  0.04391985    -0.73900
O295        O  0.98822804  0.88128029  0.04593651    -0.62500
O296        O  0.04156366  0.83295270  0.04195864    -0.71000
O297        O  0.03980045  0.83258371  0.47463315    -0.70500
O298        O  0.98612386  0.87962577  0.47679155    -0.61800
O299        O  0.03684126  0.88316670  0.47414499    -0.74300
O300        O  0.98895672  0.82921047  0.47906712    -0.73100
Cu301      Cu  0.01471649  0.85696647  0.04682798     1.04600
Cu302      Cu  0.01287382  0.85606651  0.47365641     1.04300
C303        C  0.98225108  0.82255308  0.01016045     0.93300
C304        C  0.04568789  0.89210140  0.00827507     0.92400
C305        C  0.97921377  0.88858397  0.01054615     0.84500
C306        C  0.05045229  0.82633882  0.00584984     0.90800
O307        O  0.89592200  0.96810738  0.04707027    -0.72900
O308        O  0.84418708  0.01767216  0.04809814    -0.73900
O309        O  0.84522276  0.96629786  0.04548897    -0.62500
O310        O  0.89467782  0.01888054  0.04757847    -0.71000
O311        O  0.89593730  0.01853984  0.47456925    -0.70500
O312        O  0.84613358  0.96763132  0.47310721    -0.61800
O313        O  0.84567720  0.01876761  0.47521696    -0.74300
O314        O  0.89642619  0.96794776  0.47490858    -0.73100
Cu315      Cu  0.86989712  0.99266518  0.04959412     1.04600
Cu316      Cu  0.87097203  0.99324937  0.47202893     1.04300
C317        C  0.90413084  0.96007018  0.01157174     0.93300
C318        C  0.83713522  0.02670713  0.01266838     0.92400
C319        C  0.83779772  0.95811345  0.00940391     0.84500
C320        C  0.90256866  0.02694102  0.01177546     0.90800
C321        C  0.92849270  0.92882443  0.47396885    -0.21300
C322        C  0.92333061  0.94179227  0.01178522    -0.09400
C323        C  0.93649247  0.93672342  0.04933114     0.29500
C324        C  0.95447938  0.91927864  0.04875364    -0.21300
C325        C  0.95978043  0.90662795  0.01087048    -0.09400
C326        C  0.94608135  0.91106034  0.47402062     0.29500
F327        F  0.95069606  0.89923860  0.43676593    -0.19900
H328        H  0.91924543  0.93273338  0.44419508     0.17900
H329        H  0.96446318  0.91588565  0.07796172     0.17900
F330        F  0.93236927  0.94885549  0.08645433    -0.19900
C331        C  0.93073083  0.05422105  0.46840219    -0.21300
C332        C  0.92027345  0.04662921  0.01046673    -0.09400
C333        C  0.92702017  0.05913178  0.04777900     0.29500
C334        C  0.94353201  0.07786808  0.04517493    -0.21300
C335        C  0.95362489  0.08456636  0.00547167    -0.09400
C336        C  0.94721998  0.07294470  0.46571143     0.29500
F337        F  0.95582350  0.07920691  0.42646426    -0.19900
H338        H  0.92528959  0.04545247  0.43894268     0.17900
H339        H  0.94842961  0.08713260  0.07445731     0.17900
F340        F  0.91760342  0.05348787  0.08673218    -0.19900
C341        C  0.08963775  0.06349456  0.03819307    -0.21300
C342        C  0.09613596  0.05231425  0.99931464    -0.09400
C343        C  0.08499703  0.05940676  0.46251574     0.29500
C344        C  0.06650756  0.07633276  0.46353088    -0.21300
C345        C  0.05828830  0.08615056  0.00232391    -0.09400
C346        C  0.07098574  0.08018172  0.03982181     0.29500
F347        F  0.06568316  0.09062030  0.07809165    -0.19900
H348        H  0.09903192  0.05934734  0.06770633     0.17900
H349        H  0.05812316  0.08139846  0.43350414     0.17900
F350        F  0.09156047  0.04994787  0.42404918    -0.19900
C351        C  0.07086873  0.92153780  0.96872652    -0.21300
C352        C  0.06327457  0.91184838  0.00803503    -0.09400
C353        C  0.07273875  0.92117786  0.04654109     0.29500
C354        C  0.08968653  0.93953138  0.04535668    -0.21300
C355        C  0.09755474  0.94893615  0.00597710    -0.09400
C356        C  0.08776400  0.93987747  0.96753897     0.29500
F357        F  0.09637574  0.94638637  0.42936198    -0.19900
H358        H  0.06519064  0.91293504  0.43928365     0.17900
H359        H  0.09683984  0.94619709  0.07540572     0.17900
F360        F  0.06584352  0.91256186  0.08542082    -0.19900
C361        C  0.13069829  0.42503472  0.35493325    -0.21300
C362        C  0.15207738  0.41532993  0.33812466    -0.09400
C363        C  0.17406902  0.42488990  0.35252531     0.29500
C364        C  0.17450929  0.44285268  0.38411588    -0.21300
C365        C  0.15313468  0.45193875  0.40206107    -0.09400
C366        C  0.13112797  0.44308730  0.38629612     0.29500
F367        F  0.10989186  0.45148195  0.40160085    -0.19900
H368        H  0.11345656  0.41838077  0.34428826     0.17900
H369        H  0.19174138  0.44942678  0.39496194     0.17900
F370        F  0.19525861  0.41681270  0.33648589    -0.19900
C371        C  0.13179709  0.41526321  0.13237332    -0.21300
C372        C  0.15285325  0.40779397  0.15317712    -0.09400
C373        C  0.17484059  0.41855032  0.14215935     0.29500
C374        C  0.17552447  0.43673196  0.11159186    -0.21300
C375        C  0.15439810  0.44460508  0.09152786    -0.09400
C376        C  0.13247642  0.43347140  0.10182670     0.29500
F377        F  0.11164238  0.44014360  0.08266378    -0.19900
H378        H  0.11466098  0.40716858  0.14002792     0.17900
H379        H  0.19263069  0.44498761  0.10430663     0.17900
F380        F  0.19562574  0.41211693  0.16173568    -0.19900
C381        C  0.06583134  0.19944776  0.04071746    -0.21300
C382        C  0.06048282  0.18569950  0.00394908    -0.09400
C383        C  0.07707366  0.18742190  0.46874388     0.29500
C384        C  0.09727369  0.20201832  0.47032551    -0.21300
C385        C  0.10116563  0.21563544  0.00557650    -0.09400
C386        C  0.08600677  0.21442239  0.04150428     0.29500
F387        F  0.08995629  0.22858801  0.07622524    -0.19900
H388        H  0.05409179  0.19901883  0.06848393     0.17900
H389        H  0.10859612  0.20329864  0.44206481     0.17900
F390        F  0.07284098  0.17473298  0.43231229    -0.19900
C391        C  0.12243467  0.28641982  0.39927616    -0.21300
C392        C  0.14255771  0.28295603  0.42603154    -0.09400
C393        C  0.16376690  0.29566895  0.41646684     0.29500
C394        C  0.16513564  0.31011709  0.38000439    -0.21300
C395        C  0.14523105  0.31280998  0.35289667    -0.09400
C396        C  0.12377446  0.30097641  0.36309807     0.29500
F397        F  0.10399949  0.30325084  0.33797447    -0.19900
H398        H  0.10523650  0.27849767  0.40590237     0.17900
H399        H  0.18172330  0.31951741  0.37337289     0.17900
F400        F  0.18331316  0.29399232  0.44229918    -0.19900
C401        C  0.16477954  0.27778730  0.10740911    -0.21300
C402        C  0.14299626  0.27468790  0.08562159    -0.09400
C403        C  0.12222720  0.28570210  0.10191542     0.29500
C404        C  0.12342881  0.30033854  0.13844954    -0.21300
C405        C  0.14546772  0.30468121  0.15917611    -0.09400
C406        C  0.16610114  0.29262040  0.14383692     0.29500
F407        F  0.18777074  0.29589331  0.16276732    -0.19900
H408        H  0.18104298  0.26973652  0.09481067     0.17900
H409        H  0.10720195  0.30921885  0.14921761     0.17900
F410        F  0.10099335  0.28335100  0.08101732    -0.19900
C411        C  0.13718510  0.55942944  0.12255479    -0.21300
C412        C  0.15888311  0.54955589  0.10743469    -0.09400
C413        C  0.18050612  0.55767062  0.12588623     0.29500
C414        C  0.18028643  0.57557713  0.15758012    -0.21300
C415        C  0.15860278  0.58585122  0.17192156    -0.09400
C416        C  0.13695716  0.57727007  0.15427861     0.29500
F417        F  0.11546198  0.58632526  0.16698999    -0.19900
H418        H  0.12020476  0.55358607  0.10934744     0.17900
H419        H  0.19725708  0.58159264  0.17057824     0.17900
F420        F  0.20197187  0.54858241  0.11310884    -0.19900
C421        C  0.17898360  0.58738891  0.37979191    -0.21300
C422        C  0.15773344  0.59402282  0.35865716    -0.09400
C423        C  0.13610493  0.58259234  0.36991664     0.29500
C424        C  0.13602103  0.56441508  0.40051975    -0.21300
C425        C  0.15737689  0.55718268  0.42056388    -0.09400
C426        C  0.17887344  0.56919724  0.41055347     0.29500
F427        F  0.19981647  0.56338218  0.43020974    -0.19900
H428        H  0.19581810  0.59609122  0.37216166     0.17900
H429        H  0.11919319  0.55558589  0.40771659     0.17900
F430        F  0.11507495  0.58830851  0.35046097    -0.19900
C431        C  0.10194820  0.78658303  0.96716102    -0.17300
C432        C  0.11374704  0.78192251  0.00599579    -0.09400
C433        C  0.10528116  0.79288477  0.04392819     0.29500
C434        C  0.08461366  0.80688666  0.04339214    -0.21300
C435        C  0.07210636  0.81087476  0.00500921    -0.09400
C436        C  0.08127574  0.80097746  0.96649869     0.29500
F437        F  0.07014357  0.80481564  0.92836241    -0.19900
H438        H  0.10829551  0.77850200  0.93759753     0.17900
H439        H  0.07963466  0.81706058  0.57532042     0.17900
F440        F  0.11824321  0.79212873  0.58262784    -0.19900
C441        C  0.13784402  0.70602677  0.09633259    -0.21300
C442        C  0.15923138  0.71581937  0.07986999    -0.09400
C443        C  0.18116330  0.70824214  0.09808347     0.29500
C444        C  0.18127193  0.69406483  0.13509896    -0.21300
C445        C  0.15964948  0.68641040  0.15381775    -0.09400
C446        C  0.13790714  0.69200250  0.13320276     0.29500
F447        F  0.11654365  0.68384760  0.14825154    -0.19900
H448        H  0.12076566  0.70915931  0.08088644     0.17900
H449        H  0.19835159  0.68902177  0.14900431     0.17900
F450        F  0.20253339  0.71410847  0.07998671    -0.19900
C451        C  0.18043699  0.71732692  0.40877753    -0.21300
C452        C  0.15867333  0.72701528  0.42342806    -0.09400
C453        C  0.13772313  0.72286959  0.39958619     0.29500
C454        C  0.13840876  0.70814572  0.36298583    -0.21300
C455        C  0.15999796  0.69723345  0.34951826    -0.09400
C456        C  0.18123397  0.70275674  0.37212316     0.29500
F457        F  0.20258393  0.69287238  0.36070910    -0.19900
H458        H  0.19669289  0.72001603  0.42721187     0.17900
H459        H  0.12177222  0.70438733  0.34637624     0.17900
F460        F  0.11629418  0.73144084  0.41359830    -0.19900
C461        C  0.44194872  0.17196564  0.10968912    -0.21300
C462        C  0.45383632  0.15038022  0.10001420    -0.09400
C463        C  0.44718270  0.12954213  0.12260415     0.29500
C464        C  0.42946973  0.13051599  0.15449555    -0.21300
C465        C  0.41780424  0.15215562  0.16463496    -0.09400
C466        C  0.42406789  0.17289539  0.14138650     0.29500
F467        F  0.41277121  0.19406349  0.14873675    -0.19900
H468        H  0.44635342  0.18820959  0.09241563     0.17900
H469        H  0.42501759  0.11420858  0.17153502     0.17900
F470        F  0.45797977  0.10819632  0.11449345    -0.19900
C471        C  0.42658633  0.17581055  0.36922333    -0.21300
C472        C  0.41765499  0.15415233  0.35277737    -0.09400
C473        C  0.42694590  0.13238420  0.36852994     0.29500
C474        C  0.44451966  0.13240319  0.40013755    -0.21300
C475        C  0.45342780  0.15397783  0.41676913    -0.09400
C476        C  0.44435252  0.17580222  0.40089024     0.29500
F477        F  0.45257501  0.19712201  0.41573788    -0.19900
H478        H  0.41984071  0.19280583  0.35758267     0.17900
H479        H  0.45123401  0.11531866  0.41142736     0.17900
F480        F  0.41923859  0.11091123  0.35345919    -0.19900
C481        C  0.23758863  0.07235610  0.01058873    -0.21300
C482        C  0.22922058  0.09508401  0.99747912    -0.09400
C483        C  0.20597473  0.09690723  0.98012125     0.29500
C484        C  0.19108336  0.07679289  0.97872217    -0.21300
C485        C  0.19895786  0.05478536  0.99513297    -0.09400
C486        C  0.22247404  0.05245696  0.01011264     0.29500
F487        F  0.23068703  0.03104001  0.02465037    -0.19900
H488        H  0.25567044  0.07010108  0.02263446     0.17900
H489        H  0.17338046  0.07867376  0.46723229     0.17900
F490        F  0.19781180  0.11799909  0.46467039    -0.19900
C491        C  0.22347547  0.20089820  0.99685238    -0.21300
C492        C  0.21706276  0.17743195  0.00751036    -0.09400
C493        C  0.19315194  0.17237308  0.01873911     0.29500
C494        C  0.17572906  0.19056278  0.01762215    -0.21300
C495        C  0.18208144  0.21401031  0.00586883    -0.09400
C496        C  0.20633066  0.21866570  0.48909427     0.29500
F497        F  0.21357076  0.24087086  0.47705863    -0.19900
H498        H  0.24154943  0.20395798  0.47968368     0.17900
H499        H  0.15726593  0.18627968  0.02534969     0.17900
F500        F  0.18684275  0.15010938  0.03199191    -0.19900
C501        C  0.31113534  0.16893750  0.13681618    -0.21300
C502        C  0.31590132  0.14917653  0.16323894    -0.09400
C503        C  0.30563658  0.12691692  0.15303962     0.29500
C504        C  0.29122340  0.12444727  0.11698052    -0.21300
C505        C  0.28619678  0.14414418  0.09021253    -0.09400
C506        C  0.29664688  0.16645703  0.10049559     0.29500
F507        F  0.29309589  0.18586469  0.07501460    -0.19900
H508        H  0.31914578  0.18619412  0.14355648     0.17900
H509        H  0.28483651  0.10666908  0.11038609     0.17900
F510        F  0.30972212  0.10720314  0.17752275    -0.19900
C511        C  0.29502369  0.17099400  0.41820789    -0.21300
C512        C  0.28295386  0.14955054  0.42748373    -0.09400
C513        C  0.28512769  0.13020098  0.39898675     0.29500
C514        C  0.30035288  0.13183090  0.36320369    -0.21300
C515        C  0.31339227  0.15291706  0.35480784    -0.09400
C516        C  0.30987189  0.17284812  0.38195686     0.29500
F517        F  0.32186557  0.19364380  0.37513008    -0.19900
H518        H  0.29362658  0.18605054  0.44006335     0.17900
H519        H  0.30249787  0.11627771  0.34272755     0.17900
F520        F  0.27392201  0.10916094  0.40745774    -0.19900
C521        C  0.56083605  0.12701346  0.38658346    -0.21300
C522        C  0.55686053  0.14866282  0.40860557    -0.09400
C523        C  0.57040383  0.16890206  0.39664185     0.29500
C524        C  0.58777233  0.16721445  0.36411103    -0.21300
C525        C  0.59206718  0.14539991  0.34274982    -0.09400
C526        C  0.57811614  0.12533870  0.35406764     0.29500
F527        F  0.58105891  0.10400223  0.33377913    -0.19900
H528        H  0.55055094  0.11118527  0.39457780     0.17900
H529        H  0.59819674  0.18296607  0.35621212     0.17900
F530        F  0.56734630  0.19021898  0.41693079    -0.19900
C531        C  0.56455492  0.12418062  0.11693469    -0.21300
C532        C  0.55985892  0.14574080  0.09538523    -0.09400
C533        C  0.57398421  0.16597911  0.10478898     0.29500
C534        C  0.59222614  0.16456839  0.13543005    -0.21300
C535        C  0.59679608  0.14302903  0.15719736    -0.09400
C536        C  0.58272788  0.12276474  0.14755435     0.29500
F537        F  0.58606834  0.10162692  0.16824922    -0.19900
H538        H  0.55392739  0.10835625  0.11050282     0.17900
H539        H  0.60278392  0.18040473  0.14210688     0.17900
F540        F  0.57043109  0.18708984  0.08414742    -0.19900
C541        C  0.81707394  0.05987325  0.47211745    -0.21300
C542        C  0.82082840  0.04764130  0.01268325    -0.09400
C543        C  0.80900683  0.05566781  0.05025300     0.29500
C544        C  0.79380988  0.07571091  0.04871390    -0.21300
C545        C  0.79038403  0.08796128  0.00994764    -0.09400
C546        C  0.80170450  0.07945589  0.47059069     0.29500
F547        F  0.79888129  0.09100985  0.43254059    -0.19900
H548        H  0.82603559  0.05440159  0.44278490     0.17900
H549        H  0.78401662  0.08107719  0.07726214     0.17900
F550        F  0.81160694  0.04389360  0.08809792    -0.19900
C551        C  0.72050464  0.11105104  0.39795023    -0.21300
C552        C  0.72194073  0.12932243  0.42917761    -0.09400
C553        C  0.70793373  0.15016003  0.42324743     0.29500
C554        C  0.69385102  0.15292395  0.38646742    -0.21300
C555        C  0.69301053  0.13476786  0.35538777    -0.09400
C556        C  0.70631464  0.11375441  0.36162952     0.29500
F557        F  0.70605836  0.09582510  0.33210199    -0.19900
H558        H  0.73014806  0.09452879  0.40023852     0.17900
H559        H  0.68329567  0.16907735  0.38264644     0.17900
F560        F  0.70815479  0.16806069  0.45281340    -0.19900
C561        C  0.73180467  0.15060173  0.11522811    -0.21300
C562        C  0.73220198  0.12952722  0.09067277    -0.09400
C563        C  0.71866400  0.10977657  0.10449909     0.29500
C564        C  0.70380324  0.11157729  0.14061090    -0.21300
C565        C  0.70179416  0.13323408  0.16348293    -0.09400
C566        C  0.71674139  0.15251611  0.15140443     0.29500
F567        F  0.71614068  0.17350772  0.17338927    -0.19900
H568        H  0.74195668  0.16607567  0.10478488     0.17900
H569        H  0.69279647  0.09632710  0.14911849     0.17900
F570        F  0.71861520  0.08918274  0.08126591    -0.19900
C571        C  0.43489108  0.87048352  0.36327109    -0.21300
C572        C  0.42701439  0.84939458  0.34299710    -0.09400
C573        C  0.43767302  0.82749912  0.35526638     0.29500
C574        C  0.45555712  0.82689943  0.38702893    -0.21300
C575        C  0.46333698  0.84801390  0.40744419    -0.09400
C576        C  0.45269241  0.86988770  0.39504187     0.29500
F577        F  0.45915629  0.89081532  0.41393146    -0.19900
H578        H  0.42706525  0.88761148  0.35485427     0.17900
H579        H  0.46334084  0.80978079  0.39562497     0.17900
F580        F  0.43103347  0.80660709  0.33643916    -0.19900
C581        C  0.43415016  0.82698642  0.14291740    -0.21300
C582        C  0.42406958  0.84910663  0.15490675    -0.09400
C583        C  0.43208511  0.87008271  0.13436511     0.29500
C584        C  0.45009105  0.86892022  0.10338320    -0.21300
C585        C  0.46052352  0.84692512  0.09188699    -0.09400
C586        C  0.45222233  0.82582766  0.11173028     0.29500
F587        F  0.46175283  0.80413796  0.10169711    -0.19900
H588        H  0.42830216  0.81055606  0.15812669     0.17900
H589        H  0.45588540  0.88543298  0.08839474     0.17900
F590        F  0.42257926  0.89184237  0.14397761    -0.19900
C591        C  0.19333558  0.92541163  0.52760299    -0.21300
C592        C  0.20046472  0.94816788  0.01078630    -0.09400
C593        C  0.22376675  0.95164931  0.99537101     0.29500
C594        C  0.24041428  0.93298088  0.99700640    -0.21300
C595        C  0.23386611  0.91012752  0.01240484    -0.09400
C596        C  0.20959254  0.90623492  0.52751323     0.29500
F597        F  0.20167615  0.88429448  0.53957895    -0.19900
H598        H  0.17504256  0.92244645  0.53819368     0.17900
H599        H  0.25830373  0.93624934  0.98472991     0.17900
F600        F  0.23037152  0.97309102  0.97859294    -0.19900
C601        C  0.21845828  0.78485352  0.01599233    -0.21300
C602        C  0.19405356  0.78902113  0.00737342    -0.09400
C603        C  0.18486769  0.81228206  0.49404956     0.29500
C604        C  0.20149404  0.83117665  0.49316503    -0.21300
C605        C  0.22722179  0.82716864  0.00828925    -0.09400
C606        C  0.23488738  0.80366967  0.01625457     0.29500
F607        F  0.25847825  0.79886023  0.02294275    -0.19900
H608        H  0.22489098  0.76684514  0.02198185     0.17900
H609        H  0.19578837  0.84870816  0.48234588     0.17900
F610        F  0.16162635  0.81676317  0.48381947    -0.19900
C611        C  0.29762405  0.88270260  0.39348367    -0.21300
C612        C  0.29284363  0.86287612  0.42018749    -0.09400
C613        C  0.30403644  0.84084600  0.41019213     0.29500
C614        C  0.31902274  0.83872371  0.37437120    -0.21300
C615        C  0.32370716  0.85857482  0.34811694    -0.09400
C616        C  0.31275047  0.88060424  0.35796151     0.29500
F617        F  0.31671672  0.90033112  0.33347870    -0.19900
H618        H  0.29051315  0.90026907  0.39994199     0.17900
H619        H  0.32750007  0.82162384  0.36789499     0.17900
F620        F  0.30078941  0.82134578  0.43557200    -0.19900
C621        C  0.29309717  0.87950367  0.11002691    -0.21300
C622        C  0.29137110  0.86010345  0.08154163    -0.09400
C623        C  0.30402870  0.83893880  0.09080798     0.29500
C624        C  0.31851948  0.83739934  0.12743283    -0.21300
C625        C  0.32129512  0.85715346  0.15504421    -0.09400
C626        C  0.30810423  0.87820543  0.14624530     0.29500
F627        F  0.31004563  0.89769526  0.17208081    -0.19900
H628        H  0.28375582  0.89607634  0.10303851     0.17900
H629        H  0.32848935  0.82103406  0.13305557     0.17900
F630        F  0.30303387  0.82000141  0.06348980    -0.19900
C631        C  0.59189755  0.82378219  0.14885538    -0.21300
C632        C  0.60050479  0.84537399  0.16630686    -0.09400
C633        C  0.59080081  0.86706578  0.15078304     0.29500
C634        C  0.57348063  0.86701885  0.11816016    -0.21300
C635        C  0.56520345  0.84545786  0.10010507    -0.09400
C636        C  0.57449787  0.82373841  0.11628583     0.29500
F637        F  0.56702701  0.80235779  0.10048893    -0.19900
H638        H  0.59886002  0.80678226  0.16005049     0.17900
H639        H  0.56662295  0.88404190  0.10686794     0.17900
F640        F  0.59807267  0.88847023  0.16679566    -0.19900
C641        C  0.59710587  0.86731345  0.36877545    -0.21300
C642        C  0.60669460  0.84553417  0.35399448    -0.09400
C643        C  0.59795443  0.82394223  0.37139323     0.29500
C644        C  0.57962080  0.82426993  0.40194591    -0.21300
C645        C  0.56963447  0.84601402  0.41597691    -0.09400
C646        C  0.57880252  0.86764187  0.39943272     0.29500
F647        F  0.56994329  0.88916441  0.41223165    -0.19900
H648        H  0.60351111  0.88420576  0.35613371     0.17900
H649        H  0.57312658  0.80736570  0.41438876     0.17900
F650        F  0.60681123  0.80240871  0.35866198    -0.19900
C651        C  0.79963422  0.90719619  0.46730143    -0.21300
C652        C  0.79317463  0.89519875  0.00664622    -0.09400
C653        C  0.80454746  0.90262851  0.04475634     0.29500
C654        C  0.81842311  0.92336001  0.04546140    -0.21300
C655        C  0.82150963  0.93713423  0.00820610    -0.09400
C656        C  0.81360650  0.92808255  0.46777423     0.29500
F657        F  0.81767115  0.93958157  0.43005506    -0.19900
H658        H  0.79206746  0.90100181  0.43725342     0.17900
H659        H  0.82713569  0.92837259  0.07521799     0.17900
F660        F  0.80257264  0.88956401  0.08137020    -0.19900
C661        C  0.70697500  0.83823154  0.07684337    -0.21300
C662        C  0.73110379  0.84561297  0.07991056    -0.09400
C663        C  0.74052332  0.85068927  0.12112555     0.29500
C664        C  0.72574974  0.85033188  0.15728480    -0.21300
C665        C  0.70169319  0.84385400  0.15340301    -0.09400
C666        C  0.69245065  0.83724804  0.11334022     0.29500
F667        F  0.66918425  0.83038075  0.10941467    -0.19900
H668        H  0.69903780  0.83289719  0.04679720     0.17900
H669        H  0.73310484  0.85498678  0.18839656     0.17900
F670        F  0.76402173  0.85638001  0.12638746    -0.19900
C671        C  0.71955090  0.86841743  0.36114497    -0.21300
C672        C  0.71162149  0.84625362  0.34470419    -0.09400
C673        C  0.72121536  0.82509784  0.36263855     0.29500
C674        C  0.73678592  0.82623220  0.39799472    -0.21300
C675        C  0.74332361  0.84834264  0.41594150    -0.09400
C676        C  0.73511150  0.86946968  0.39648220     0.29500
F677        F  0.74049180  0.89108696  0.41394508    -0.19900
H678        H  0.71270432  0.88505711  0.34814149     0.17900
H679        H  0.74248450  0.80974534  0.41324932     0.17900
F680        F  0.71453002  0.80324749  0.34781727    -0.19900
C681        C  0.88614878  0.41119608  0.14132327    -0.21300
C682        C  0.86418254  0.40419209  0.15974102    -0.09400
C683        C  0.84298853  0.41547564  0.14539831     0.29500
C684        C  0.84388930  0.43309319  0.11339869    -0.21300
C685        C  0.86584086  0.44002542  0.09483906    -0.09400
C686        C  0.88705184  0.42883768  0.10935398     0.29500
F687        F  0.90874664  0.43468242  0.09249500    -0.19900
H688        H  0.90277663  0.40289029  0.15146604     0.17900
H689        H  0.82725045  0.44133400  0.10314650     0.17900
F690        F  0.82127834  0.40955967  0.16211778    -0.19900
C691        C  0.88725090  0.41266202  0.35503713    -0.21300
C692        C  0.86547863  0.40106272  0.34606660    -0.09400
C693        C  0.84454178  0.40833226  0.36791026     0.29500
C694        C  0.84545272  0.42696798  0.39761516    -0.21300
C695        C  0.86715566  0.43872715  0.40632931    -0.09400
C696        C  0.88815090  0.43134671  0.38480503     0.29500
F697        F  0.90947236  0.44240223  0.39177074    -0.19900
H698        H  0.90358787  0.40755892  0.33845348     0.17900
H699        H  0.82905983  0.43210729  0.41399090     0.17900
F700        F  0.82312896  0.39746024  0.36084409    -0.19900
C701        C  0.93552271  0.18881270  0.03683265    -0.21300
C702        C  0.94927919  0.18606541  0.99937841    -0.09400
C703        C  0.94102062  0.19670591  0.45976612     0.29500
C704        C  0.91976696  0.21028118  0.46018562    -0.21300
C705        C  0.90706820  0.21419840  0.99899245    -0.09400
C706        C  0.91463299  0.20249920  0.03666766     0.29500
F707        F  0.90160194  0.20407476  0.07348389    -0.19900
H708        H  0.94066469  0.17995613  0.06637621     0.17900
H709        H  0.91421148  0.21961378  0.43137100     0.17900
F710        F  0.95381388  0.19521062  0.42270142    -0.19900
C711        C  0.80065630  0.21084908  0.99985363    -0.21300
C712        C  0.82521522  0.20529478  0.99721453    -0.09400
C713        C  0.83230296  0.18111319  0.99613272     0.29500
C714        C  0.81498310  0.16287479  0.99906794    -0.21300
C715        C  0.79046598  0.16861006  0.00227571    -0.09400
C716        C  0.78344559  0.19275825  0.00194126     0.29500
F717        F  0.75986667  0.19882693  0.00419496    -0.19900
H718        H  0.79482254  0.22936279  0.00089582     0.17900
H719        H  0.81984911  0.14473630  0.48476832     0.17900
F720        F  0.85590214  0.17518002  0.99386003    -0.19900
C721        C  0.86518573  0.27981384  0.15338717    -0.21300
C722        C  0.85861809  0.30387172  0.15078081    -0.09400
C723        C  0.85082925  0.31351783  0.11174426     0.29500
C724        C  0.85086644  0.29946839  0.07477563    -0.21300
C725        C  0.85850834  0.27543195  0.07635949    -0.09400
C726        C  0.86447854  0.26546207  0.11677949     0.29500
F727        F  0.87015033  0.24190416  0.12074033    -0.19900
H728        H  0.87067800  0.27214286  0.18380141     0.17900
H729        H  0.84462731  0.30766819  0.04551118     0.17900
F730        F  0.84383127  0.33678418  0.10921544    -0.19900
C731        C  0.83882567  0.29252566  0.36550268    -0.21300
C732        C  0.86035550  0.29632245  0.34285276    -0.09400
C733        C  0.88090740  0.28314924  0.35508831     0.29500
C734        C  0.88010152  0.26776502  0.39073885    -0.21300
C735        C  0.85894639  0.26535880  0.41480225    -0.09400
C736        C  0.83816519  0.27743259  0.40129370     0.29500
F737        F  0.81763077  0.27594925  0.42469889    -0.19900
H738        H  0.82270594  0.30229502  0.35705087     0.17900
H739        H  0.89643667  0.25907498  0.40137077     0.17900
F740        F  0.90204681  0.28587216  0.33392509    -0.19900
C741        C  0.89198682  0.57130099  0.35353837    -0.21300
C742        C  0.87050703  0.58161321  0.33856626    -0.09400
C743        C  0.84863689  0.57330082  0.35587178     0.29500
C744        C  0.84841737  0.55517480  0.38701397    -0.21300
C745        C  0.86988424  0.54482455  0.40191902    -0.09400
C746        C  0.89176951  0.55319116  0.38473139     0.29500
F747        F  0.91306683  0.54391697  0.39782996    -0.19900
H748        H  0.90912519  0.57721207  0.34100299     0.17900
H749        H  0.83127868  0.54928833  0.39958333     0.17900
F750        F  0.82734269  0.58262532  0.34289354    -0.19900
C751        C  0.84807141  0.57464979  0.13458196    -0.21300
C752        C  0.87014889  0.58151765  0.15247183    -0.09400
C753        C  0.89124084  0.56975894  0.13900508     0.29500
C754        C  0.89014264  0.55167377  0.10824161    -0.21300
C755        C  0.86810626  0.54483351  0.09024462    -0.09400
C756        C  0.84697527  0.55650879  0.10378257     0.29500
F757        F  0.82524807  0.55061961  0.08721001    -0.19900
H758        H  0.83155296  0.58336903  0.14432229     0.17900
H759        H  0.90668712  0.54296280  0.09861802     0.17900
F760        F  0.91299700  0.57550935  0.15560813    -0.19900
C761        C  0.84581312  0.80325617  0.48722805    -0.21300
C762        C  0.84134967  0.77959638  0.00136204    -0.09400
C763        C  0.81821382  0.77266592  0.01358716     0.29500
C764        C  0.79967228  0.78945310  0.01493819    -0.21300
C765        C  0.80374587  0.81360951  0.00417439    -0.09400
C766        C  0.82705687  0.82011503  0.48775100     0.29500
F767        F  0.83183586  0.84307740  0.47643869    -0.19900
H768        H  0.86345627  0.80860563  0.47618563     0.17900
H769        H  0.78190408  0.78338381  0.02386579     0.17900
F770        F  0.81343751  0.74943588  0.02312886    -0.19900
C771        C  0.94093879  0.81039845  0.02999155    -0.21300
C772        C  0.96303717  0.80472070  0.01089493    -0.09400
C773        C  0.96604693  0.78263691  0.99043491     0.29500
C774        C  0.94698295  0.76653916  0.98853770    -0.21300
C775        C  0.92414531  0.77269302  0.00495031    -0.09400
C776        C  0.92145962  0.79473792  0.02651984     0.29500
F777        F  0.89983873  0.80202769  0.04175803    -0.19900
H778        H  0.93841510  0.82757739  0.04559885     0.17900
H779        H  0.95089928  0.74694566  0.48735416     0.17900
F780        F  0.98737527  0.77673581  0.97204812    -0.19900
C781        C  0.89813383  0.71157320  0.38552024    -0.21300
C782        C  0.87885935  0.71339793  0.41484891    -0.09400
C783        C  0.85757564  0.70071645  0.40561270     0.29500
C784        C  0.85588545  0.68647464  0.36888633    -0.21300
C785        C  0.87538497  0.68430431  0.34061660    -0.09400
C786        C  0.89642817  0.69726306  0.34895132     0.29500
F787        F  0.91549048  0.69615298  0.32175410    -0.19900
H788        H  0.91486981  0.72077068  0.39002102     0.17900
H789        H  0.83950365  0.67653468  0.36330963     0.17900
F790        F  0.83843344  0.70178473  0.43262879    -0.19900
C791        C  0.89709087  0.69191671  0.12904149    -0.21300
C792        C  0.87482345  0.68509423  0.14676358    -0.09400
C793        C  0.85367029  0.69430379  0.12795693     0.29500
C794        C  0.85491110  0.70915245  0.09168297    -0.21300
C795        C  0.87711470  0.71522805  0.07355861    -0.09400
C796        C  0.89823817  0.70672687  0.09273183     0.29500
F797        F  0.91993550  0.71185659  0.07510731    -0.19900
H798        H  0.91369969  0.68518433  0.14246232     0.17900
H799        H  0.83845147  0.71521864  0.07671308     0.17900
F800        F  0.83170642  0.68832425  0.14346346    -0.19900
C801        C  0.87902939  0.72907378  0.95294824     0.86500
C802        C  0.85895194  0.74768907  0.95665625    -0.53800
C803        C  0.86021851  0.76095992  0.49371231     0.09400
C804        C  0.87944192  0.75356657  0.52690543     0.20400
C805        C  0.90214836  0.74380181  0.95852789    -0.54500
C806        C  0.90333959  0.75538339  0.50183242     0.09500
C807        C  0.87740012  0.71408175  0.99414027    -0.54000
C808        C  0.87558646  0.72643611  0.53370971     0.10100
H809        H  0.84529942  0.75023645  0.93217498     0.14600
H810        H  0.87874322  0.76392520  0.55730489     0.00300
H811        H  0.91628880  0.74491547  0.93495316     0.14900
H812        H  0.87377949  0.69416643  0.49597366     0.14700
O813        O  0.84918820  0.60809847  0.69996883    -0.72900
O814        O  0.85041157  0.65833916  0.79187570    -0.73900
O815        O  0.84983149  0.65887451  0.69994737    -0.62500
O816        O  0.84948749  0.60757042  0.79114451    -0.71000
O817        O  0.88919884  0.60658585  0.79029785    -0.70500
O818        O  0.88960424  0.65849782  0.69935708    -0.61800
O819        O  0.89021562  0.65730659  0.79022215    -0.74300
O820        O  0.88895347  0.60767137  0.69924582    -0.73100
Cu821      Cu  0.84833049  0.63329254  0.74576292     1.04600
Cu822      Cu  0.89085078  0.63252127  0.74475877     1.04300
C823        C  0.86896519  0.59985007  0.68519767     0.93300
C824        C  0.87070857  0.66561903  0.80570876     0.92400
C825        C  0.86971753  0.66663321  0.68482864     0.84500
C826        C  0.86921005  0.59885623  0.80517249     0.90800
C827        C  0.86141667  0.25960192  0.53709175     0.86500
C828        C  0.84181441  0.24055198  0.53803271    -0.53800
C829        C  0.84251587  0.22469507  0.50463222     0.09400
C830        C  0.86418928  0.23040912  0.97121503     0.20400
C831        C  0.88502118  0.24571583  0.53395730    -0.54500
C832        C  0.88600780  0.22952333  0.50124113     0.09500
C833        C  0.85903121  0.27149369  0.49284589    -0.54000
C834        C  0.86043904  0.25696179  0.95826021     0.10100
H835        H  0.82867733  0.23948271  0.56380846     0.14600
H836        H  0.86574994  0.21784675  0.94366566     0.00300
H837        H  0.89964892  0.24802879  0.55663173     0.14900
H838        H  0.85771905  0.29058375  0.48730556     0.14700
O839        O  0.84394498  0.37625642  0.79716034    -0.72900
O840        O  0.84174393  0.32834564  0.70299890    -0.73900
O841        O  0.84264013  0.32558674  0.79420492    -0.62500
O842        O  0.84332995  0.37863371  0.70632635    -0.71000
O843        O  0.88302706  0.37692771  0.70471293    -0.70500
O844        O  0.88237091  0.32453340  0.79400169    -0.61800
O845        O  0.88162555  0.32623037  0.70288922    -0.74300
O846        O  0.88369939  0.37541127  0.79594340    -0.73100
Cu847      Cu  0.84155097  0.35218353  0.75031253     1.04600
Cu848      Cu  0.88408889  0.35070113  0.74940598     1.04300
C849        C  0.86407691  0.38372123  0.81121739     0.93300
C850        C  0.86130122  0.32010592  0.68767215     0.92400
C851        C  0.86232265  0.31676730  0.80835371     0.84500
C852        C  0.86333961  0.38605277  0.69121987     0.90800
O853        O  0.84672257  0.46774766  0.54268598    -0.72900
O854        O  0.84814123  0.51725359  0.95204901    -0.73900
O855        O  0.84702907  0.46639301  0.95458234    -0.62500
O856        O  0.84778500  0.51847596  0.54036974    -0.71000
O857        O  0.88753347  0.51750171  0.54173565    -0.70500
O858        O  0.88678580  0.46552342  0.95475261    -0.61800
O859        O  0.88785595  0.51632276  0.95248184    -0.74300
O860        O  0.88643734  0.46676972  0.54343891    -0.73100
Cu861      Cu  0.84641909  0.49286537  0.49591160     1.04600
Cu862      Cu  0.88890500  0.49186112  0.49706497     1.04300
C863        C  0.86630267  0.45928226  0.55790117     0.93300
C864        C  0.86825407  0.52480159  0.93746062     0.92400
C865        C  0.86678538  0.45771942  0.94061666     0.84500
C866        C  0.86765965  0.52613724  0.55525832     0.90800
C867        C  0.74801660  0.84818803  0.53862626     0.86500
C868        C  0.76754092  0.82893377  0.53803399    -0.53800
C869        C  0.78372160  0.83079809  0.50513719     0.09400
C870        C  0.77819783  0.85226665  0.97759266     0.20400
C871        C  0.76149702  0.87198345  0.53820219    -0.54500
C872        C  0.77809415  0.87418794  0.50622942     0.09500
C873        C  0.73650486  0.84680181  0.49387284    -0.54000
C874        C  0.75200664  0.84798552  0.96289804     0.10100
H875        H  0.76865925  0.81520074  0.56264799     0.14600
H876        H  0.79111901  0.85414819  0.95062893     0.00300
H877        H  0.75851841  0.88581443  0.56221745     0.14900
H878        H  0.71752782  0.84470843  0.48764925     0.14700
O879        O  0.63391092  0.82565227  0.80410643    -0.72900
O880        O  0.68059418  0.82393259  0.70645496    -0.73900
O881        O  0.68495840  0.82512899  0.79804253    -0.62500
O882        O  0.63000015  0.82453651  0.71312641    -0.71000
O883        O  0.63070316  0.86415891  0.71164092    -0.70500
O884        O  0.68504593  0.86476328  0.79736324    -0.61800
O885        O  0.68142883  0.86374511  0.70616944    -0.74300
O886        O  0.63397113  0.86530533  0.80272572    -0.73100
Cu887      Cu  0.65743630  0.82343123  0.75559486     1.04600
Cu888      Cu  0.65785890  0.86586043  0.75449224     1.04300
C889        C  0.62611593  0.84566925  0.81836798     0.93300
C890        C  0.68793655  0.84363911  0.69049687     0.92400
C891        C  0.69354775  0.84500274  0.81158360     0.84500
C892        C  0.62176900  0.84434658  0.69860399     0.90800
C893        C  0.27774589  0.86496529  0.96094290     0.86500
C894        C  0.25870810  0.84536754  0.96385829    -0.53800
C895        C  0.24388151  0.84581940  0.49806455     0.09400
C896        C  0.25100259  0.86559845  0.53040784     0.20400
C897        C  0.26351029  0.88831838  0.96730792    -0.54500
C898        C  0.24950430  0.88892614  0.50377682     0.09500
C899        C  0.29261198  0.86248091  0.00211486    -0.54000
C900        C  0.27814337  0.86165769  0.53830150     0.10100
H901        H  0.25611210  0.83191218  0.93904208     0.14600
H902        H  0.24021505  0.86563172  0.56041538     0.00300
H903        H  0.26271178  0.90263145  0.94413956     0.14900
H904        H  0.31081550  0.85867953  0.50172686     0.14700
O905        O  0.34731557  0.87437979  0.70440452    -0.72900
O906        O  0.39917048  0.87067104  0.79517796    -0.73900
O907        O  0.39814514  0.87060051  0.70386584    -0.62500
O908        O  0.34852687  0.87441761  0.79551924    -0.71000
O909        O  0.34600178  0.83477429  0.79693789    -0.70500
O910        O  0.39552497  0.83101395  0.70381906    -0.61800
O911        O  0.39687639  0.83109094  0.79515255    -0.74300
O912        O  0.34467614  0.83480644  0.70472383    -0.73100
Cu913      Cu  0.37336193  0.87386045  0.74972672     1.04600
Cu914      Cu  0.37060301  0.83153002  0.75015006     1.04300
C915        C  0.33795402  0.85511808  0.68981714     0.93300
C916        C  0.40627946  0.85038731  0.80956164     0.92400
C917        C  0.40479070  0.85027834  0.68924336     0.84500
C918        C  0.33963619  0.85528553  0.81120675     0.90800
O919        O  0.48887767  0.86538674  0.54834339    -0.72900
O920        O  0.54119132  0.86735346  0.95876116    -0.73900
O921        O  0.48983745  0.86760962  0.95557085    -0.62500
O922        O  0.53963552  0.86430013  0.55262527    -0.71000
O923        O  0.53891908  0.82467587  0.55158013    -0.70500
O924        O  0.48952487  0.82798469  0.95378107    -0.61800
O925        O  0.54082918  0.82770120  0.95745567    -0.74300
O926        O  0.48781462  0.82572984  0.54715705    -0.73100
Cu927      Cu  0.51513171  0.86675893  0.50514524     1.04600
Cu928      Cu  0.51433888  0.82438621  0.50357435     1.04300
C929        C  0.47992205  0.84569064  0.56151122     0.93300
C930        C  0.54956960  0.84758329  0.94448702     0.92400
C931        C  0.48146784  0.84807567  0.94016879     0.84500
C932        C  0.54713934  0.84421896  0.56720141     0.90800
C933        C  0.73909514  0.12713149  0.96841784     0.86500
C934        C  0.75636386  0.14847336  0.96703269    -0.53800
C935        C  0.77212188  0.14894684  0.50141358     0.09400
C936        C  0.76844403  0.12801210  0.53296331     0.20400
C937        C  0.75567508  0.10526646  0.97238610    -0.54500
C938        C  0.77065964  0.10570615  0.50414087     0.09500
C939        C  0.72668221  0.12873623  0.01215224    -0.54000
C940        C  0.74155035  0.12918034  0.54531551     0.10100
H941        H  0.75664877  0.16136226  0.94087762     0.14600
H942        H  0.78094958  0.12819932  0.56071550     0.00300
H943        H  0.75600861  0.09010904  0.95064206     0.14900
H944        H  0.70695186  0.12988751  0.51447424     0.14700
O945        O  0.67233217  0.15438288  0.80364400    -0.72900
O946        O  0.62613742  0.15959303  0.70571872    -0.73900
O947        O  0.62227148  0.15941306  0.79684498    -0.62500
O948        O  0.67674272  0.15479072  0.71204133    -0.71000
O949        O  0.67290316  0.11534702  0.71039400    -0.70500
O950        O  0.61876577  0.11991413  0.79617553    -0.61800
O951        O  0.62245883  0.12008940  0.70547264    -0.74300
O952        O  0.66891141  0.11481274  0.80141754    -0.73100
Cu953      Cu  0.64957539  0.15843342  0.75451141     1.04600
Cu954      Cu  0.64568778  0.11618934  0.75326348     1.04300
C955        C  0.67744571  0.13369683  0.81858767     0.93300
C956        C  0.61669656  0.14054972  0.69049276     0.92400
C957        C  0.61207873  0.14036582  0.81043265     0.84500
C958        C  0.68322631  0.13442524  0.69714139     0.90800
C959        C  0.27039907  0.14273854  0.54811953     0.86500
C960        C  0.24968346  0.16067452  0.54678462    -0.53800
C961        C  0.23623178  0.15962207  0.51041079     0.09400
C962        C  0.24409182  0.14028514  0.98091903     0.20400
C963        C  0.25851578  0.11825763  0.54027006    -0.54500
C964        C  0.24489903  0.11685246  0.50390227     0.09500
C965        C  0.28477500  0.14727747  0.50683362    -0.54000
C966        C  0.27093916  0.14525705  0.97239751     0.10100
H967        H  0.24620289  0.17356901  0.57223796     0.14600
H968        H  0.23324480  0.14001461  0.95108508     0.00300
H969        H  0.25993525  0.10317227  0.56168534     0.14900
H970        H  0.30396124  0.15073174  0.50657209     0.14700
O971        O  0.38865701  0.17233995  0.80566767    -0.72900
O972        O  0.33872185  0.17208033  0.71276481    -0.73900
O973        O  0.33747768  0.17164517  0.80508925    -0.62500
O974        O  0.38977722  0.17276089  0.71417343    -0.71000
O975        O  0.39010362  0.13312587  0.71389786    -0.70500
O976        O  0.33820915  0.13200821  0.80458395    -0.61800
O977        O  0.33941759  0.13235567  0.71374223    -0.74300
O978        O  0.38896231  0.13267567  0.80458190    -0.73100
Cu979      Cu  0.36356506  0.17364683  0.75946678     1.04600
Cu980      Cu  0.36414255  0.13123802  0.75917879     1.04300
C981        C  0.39690196  0.15239871  0.81945515     0.93300
C982        C  0.33139243  0.15194351  0.69838161     0.92400
C983        C  0.32980405  0.15162153  0.81969865     0.84500
C984        C  0.39829513  0.15301845  0.69973198     0.90800
O985        O  0.48305814  0.17096581  0.55582823    -0.72900
O986        O  0.53215569  0.16712531  0.95856519    -0.73900
O987        O  0.48126516  0.16983830  0.96100488    -0.62500
O988        O  0.53435144  0.16837839  0.55101371    -0.71000
O989        O  0.53221500  0.12876166  0.54915914    -0.70500
O990        O  0.47933586  0.13020640  0.96080037    -0.61800
O991        O  0.53001352  0.12752614  0.95835108    -0.74300
O992        O  0.48128629  0.13138599  0.55415827    -0.73100
Cu993      Cu  0.50787265  0.17175970  0.50802521     1.04600
Cu994      Cu  0.50570708  0.12941668  0.50634346     1.04300
C995        C  0.47412059  0.15133954  0.56983474     0.93300
C996        C  0.53900954  0.14688881  0.94356892     0.92400
C997        C  0.47203881  0.15047545  0.94690868     0.84500
C998        C  0.54191434  0.14790029  0.56329781     0.90800
C999        C  0.15754887  0.73389242  0.54575278     0.86500
C1000       C  0.17660795  0.75368653  0.54500809    -0.53800
C1001       C  0.17512102  0.76889504  0.51077322     0.09400
C1002       C  0.15594057  0.76386469  0.97853150     0.20400
C1003       C  0.13394864  0.74799530  0.54458029    -0.54500
C1004       C  0.13193067  0.76347974  0.51097660     0.09500
C1005       C  0.15929939  0.72156838  0.50204743    -0.54000
C1006       C  0.15894682  0.73725568  0.96500575     0.10100
H1007       H  0.18917332  0.75686062  0.57089318     0.14600
H1008       H  0.15501480  0.77656361  0.95114877     0.00300
H1009       H  0.12028545  0.74669432  0.56940880     0.14900
H1010       H  0.16179267  0.70236482  0.49843223     0.14700
O1011       O  0.17973331  0.61751789  0.80751323    -0.72900
O1012       O  0.17922450  0.66339954  0.70926912    -0.73900
O1013       O  0.18001813  0.66830221  0.80066034    -0.62500
O1014       O  0.17880997  0.61286133  0.71635136    -0.71000
O1015       O  0.13909897  0.61354101  0.71765052    -0.70500
O1016       O  0.14031006  0.66898961  0.80153450    -0.61800
O1017       O  0.13943878  0.66380295  0.71042744    -0.74300
O1018       O  0.13997884  0.61828248  0.80849416    -0.73100
Cu1019     Cu  0.18083993  0.64056566  0.75847347     1.04600
Cu1020     Cu  0.13835541  0.64121350  0.75966590     1.04300
C1021       C  0.15981927  0.61041007  0.82331454     0.93300
C1022       C  0.15924076  0.67036127  0.69355598     0.92400
C1023       C  0.16037483  0.67728998  0.81483896     0.84500
C1024       C  0.15868505  0.60459632  0.70321526     0.90800
C1025       C  0.14226346  0.26513515  0.96363717     0.86500
C1026       C  0.16326341  0.24737289  0.96527606    -0.53800
C1027       C  0.16410231  0.23372828  0.49959085     0.09400
C1028       C  0.14312465  0.23777742  0.53160780     0.20400
C1029       C  0.12012149  0.24891161  0.96680076    -0.54500
C1030       C  0.12057360  0.23489348  0.50335395     0.09500
C1031       C  0.14304867  0.27856453  0.00651563    -0.54000
C1032       C  0.14398293  0.26485369  0.54265147     0.10100
H1033       H  0.17645517  0.24584850  0.93967617     0.14600
H1034       H  0.14347230  0.22581083  0.56007636     0.00300
H1035       H  0.10628971  0.24752403  0.94256842     0.14900
H1036       H  0.14385860  0.29880721  0.50990575     0.14700
O1037       O  0.17138160  0.38191760  0.70351305    -0.72900
O1038       O  0.16823418  0.33497890  0.80056067    -0.73900
O1039       O  0.16799053  0.33124160  0.70874870    -0.62500
O1040       O  0.17177310  0.38561996  0.79470644    -0.71000
O1041       O  0.13214619  0.38835139  0.79486034    -0.70500
O1042       O  0.12837929  0.33424905  0.70831593    -0.61800
O1043       O  0.12854860  0.33771962  0.79975291    -0.74300
O1044       O  0.13170088  0.38471567  0.70371557    -0.73100
Cu1045     Cu  0.17122156  0.35829456  0.75188173     1.04600
Cu1046     Cu  0.12883493  0.36130955  0.75171299     1.04300
C1047       C  0.15203657  0.39079610  0.68830067     0.93300
C1048       C  0.14777099  0.32909409  0.81580020     0.92400
C1049       C  0.14763483  0.32443503  0.69420181     0.84500
C1050       C  0.15255944  0.39561818  0.80848809     0.90800
O1051       O  0.17655664  0.52252442  0.55402034    -0.72900
O1052       O  0.17644538  0.47610688  0.95697549    -0.73900
O1053       O  0.17897485  0.52693057  0.96540316    -0.62500
O1054       O  0.17444523  0.47184539  0.54426576    -0.71000
O1055       O  0.13470398  0.47347048  0.54497136    -0.70500
O1056       O  0.13923299  0.52857018  0.96539306    -0.61800
O1057       O  0.13677805  0.47810395  0.95699082    -0.74300
O1058       O  0.13686675  0.52418545  0.55428805    -0.73100
Cu1059     Cu  0.17682416  0.49943565  0.50365715     1.04600
Cu1060     Cu  0.13436690  0.50112961  0.50428915     1.04300
C1061       C  0.15703194  0.53088005  0.56983289     0.93300
C1062       C  0.15623474  0.46954597  0.94135137     0.92400
C1063       C  0.15946198  0.53641243  0.95226694     0.84500
C1064       C  0.15428198  0.46390608  0.55761134     0.90800
O1065       O  0.12494460  0.97432570  0.96927201    -0.72900
O1066       O  0.17382300  0.02589774  0.96321800    -0.73900
O1067       O  0.17579564  0.97498856  0.97070671    -0.62500
O1068       O  0.12316448  0.02480639  0.96421607    -0.71000
O1069       O  0.12454895  0.02760431  0.53702657    -0.70500
O1070       O  0.17403209  0.97623085  0.54343604    -0.61800
O1071       O  0.17552283  0.02728530  0.53632696    -0.74300
O1072       O  0.12341449  0.97696944  0.54144983    -0.73100
Cu1073     Cu  0.14951198  0.99987991  0.96431830     1.04600
Cu1074     Cu  0.14943637  0.00214204  0.54206627     1.04300
C1075       C  0.11605186  0.96758945  0.50629179     0.93300
C1076       C  0.18241029  0.03492451  0.49951380     0.92400
C1077       C  0.18257465  0.96735018  0.50894596     0.84500
C1078       C  0.11575095  0.03416308  0.50108316     0.90800
O1079       O  0.97959787  0.16237944  0.96524802    -0.72900
O1080       O  0.03023042  0.11169954  0.96746754    -0.73900
O1081       O  0.97946912  0.11175419  0.96780579    -0.62500
O1082       O  0.03107682  0.16197294  0.96753384    -0.71000
O1083       O  0.03063996  0.16348351  0.53817546    -0.70500
O1084       O  0.98068805  0.11270488  0.53692161    -0.61800
O1085       O  0.03134681  0.11314214  0.53802909    -0.74300
O1086       O  0.97922012  0.16287572  0.53463222    -0.73100
Cu1087     Cu  0.00507653  0.13704683  0.96453389     1.04600
Cu1088     Cu  0.00541130  0.13820905  0.53935658     1.04300
C1089       C  0.97083753  0.16992027  0.49848964     0.93300
C1090       C  0.03961774  0.10485225  0.50263569     0.92400
C1091       C  0.97282959  0.10416577  0.50165387     0.84500
C1092       C  0.04021416  0.17025387  0.50300392     0.90800
O1093       O  0.98946741  0.83093092  0.55041292    -0.72900
O1094       O  0.03791576  0.88341530  0.54527914    -0.73900
O1095       O  0.98734464  0.88110563  0.54793811    -0.62500
O1096       O  0.04074295  0.83300215  0.54584704    -0.71000
O1097       O  0.04120957  0.83365649  0.97076713    -0.70500
O1098       O  0.98704840  0.88053229  0.97475891    -0.61800
O1099       O  0.03756167  0.88395464  0.97276140    -0.74300
O1100       O  0.99027270  0.83003333  0.97410327    -0.73100
Cu1101     Cu  0.01394345  0.85705465  0.54984243     1.04600
Cu1102     Cu  0.01395925  0.85698344  0.97061380     1.04300
C1103       C  0.98125984  0.82211197  0.51564244     0.93300
C1104       C  0.04497834  0.89182779  0.50932785     0.92400
C1105       C  0.97820106  0.88787873  0.51232052     0.84500
C1106       C  0.04914092  0.82563933  0.50984833     0.90800
O1107       O  0.89627936  0.96866040  0.54612534    -0.72900
O1108       O  0.84494772  0.01826770  0.54641177    -0.73900
O1109       O  0.84591224  0.96683961  0.54427179    -0.62500
O1110       O  0.89551677  0.01943142  0.54573863    -0.71000
O1111       O  0.89504952  0.01823175  0.97638722    -0.70500
O1112       O  0.84518919  0.96730128  0.97431527    -0.61800
O1113       O  0.84488791  0.01839478  0.97689835    -0.74300
O1114       O  0.89578401  0.96769354  0.97585095    -0.73100
Cu1115     Cu  0.87056845  0.99328808  0.54817249     1.04600
Cu1116     Cu  0.87014792  0.99289458  0.97344530     1.04300
C1117       C  0.90435129  0.96023235  0.51086739     0.93300
C1118       C  0.83779373  0.02708968  0.51090227     0.92400
C1119       C  0.83882575  0.95836215  0.50816541     0.84500
C1120       C  0.90351804  0.02730676  0.50985294     0.90800
C1121       C  0.92863975  0.92913467  0.97396616    -0.21300
C1122       C  0.92282102  0.94131987  0.51177935    -0.09400
C1123       C  0.93480105  0.93536672  0.55015729     0.29500
C1124       C  0.95251338  0.91772120  0.55013929    -0.21300
C1125       C  0.95857543  0.90561211  0.51210337    -0.09400
C1126       C  0.94660733  0.91172451  0.97337920     0.29500
F1127       F  0.95080865  0.89975402  0.93613044    -0.19900
H1128       H  0.91872454  0.93256326  0.94469812     0.17900
H1129       H  0.96174318  0.91381157  0.57992927     0.17900
F1130       F  0.92981117  0.94681129  0.58764078    -0.19900
C1131       C  0.93023590  0.05347504  0.97077217    -0.21300
C1132       C  0.92139551  0.04686549  0.50833193    -0.09400
C1133       C  0.92893857  0.05874381  0.54578534     0.29500
C1134       C  0.94542026  0.07747655  0.54309204    -0.21300
C1135       C  0.95479957  0.08477759  0.50317700    -0.09400
C1136       C  0.94667878  0.07220983  0.96815575     0.29500
F1137       F  0.95595550  0.07789599  0.92912203    -0.19900
H1138       H  0.92537674  0.04424700  0.94143423     0.17900
H1139       H  0.95087089  0.08625054  0.57254264     0.17900
F1140       F  0.92037968  0.05245664  0.58504222    -0.19900
C1141       C  0.08870686  0.06258508  0.53985747    -0.21300
C1142       C  0.09636641  0.05235760  0.50081662    -0.09400
C1143       C  0.08351512  0.05834180  0.96171024     0.29500
C1144       C  0.06482047  0.07506949  0.96334045    -0.21300
C1145       C  0.05890142  0.08657908  0.50259225    -0.09400
C1146       C  0.07019817  0.07944299  0.54088796     0.29500
F1147       F  0.06358673  0.08880405  0.57941172    -0.19900
H1148       H  0.09704259  0.05753359  0.56993343     0.17900
H1149       H  0.05539814  0.07929610  0.93388870     0.17900
F1150       F  0.08897556  0.04799295  0.92342823    -0.19900
C1151       C  0.07146930  0.92035729  0.46939146    -0.21300
C1152       C  0.06273036  0.91161557  0.50869458    -0.09400
C1153       C  0.07128476  0.92189749  0.54716580     0.29500
C1154       C  0.08837807  0.94016990  0.54605790    -0.21300
C1155       C  0.09737774  0.94867109  0.50679070    -0.09400
C1156       C  0.08854656  0.93865481  0.46827988     0.29500
F1157       F  0.09440681  0.94864347  0.92862399    -0.19900
H1158       H  0.06379901  0.91486573  0.93861763     0.17900
H1159       H  0.09469819  0.94754745  0.57617170     0.17900
F1160       F  0.06328018  0.91434047  0.58607118    -0.19900
C1161       C  0.13258301  0.42576321  0.85698121    -0.21300
C1162       C  0.15382154  0.41547105  0.84078038    -0.09400
C1163       C  0.17594072  0.42409508  0.85650552     0.29500
C1164       C  0.17658006  0.44184950  0.88849602    -0.21300
C1165       C  0.15529509  0.45164132  0.90555178    -0.09400
C1166       C  0.13321940  0.44359261  0.88872998     0.29500
F1167       F  0.11207947  0.45265605  0.90320882    -0.19900
H1168       H  0.11526893  0.41980958  0.84542056     0.17900
H1169       H  0.19387038  0.44774570  0.90026522     0.17900
F1170       F  0.19705534  0.41529666  0.84139407    -0.19900
C1171       C  0.13183733  0.41488527  0.63146065    -0.21300
C1172       C  0.15302372  0.40839326  0.65297437    -0.09400
C1173       C  0.17476323  0.41934131  0.64106444     0.29500
C1174       C  0.17504383  0.43689976  0.60924017    -0.21300
C1175       C  0.15374683  0.44395949  0.58871149    -0.09400
C1176       C  0.13212332  0.43242793  0.59957394     0.29500
F1177       F  0.11120554  0.43809997  0.57968579    -0.19900
H1178       H  0.11490048  0.40650701  0.63953750     0.17900
H1179       H  0.19195313  0.44542067  0.60148677     0.17900
F1180       F  0.19567615  0.41373373  0.66100056    -0.19900
C1181       C  0.06747773  0.19866691  0.54208418    -0.21300
C1182       C  0.06155890  0.18599762  0.50432001    -0.09400
C1183       C  0.07630607  0.18636363  0.96873921     0.29500
C1184       C  0.09642091  0.20110459  0.96976278    -0.21300
C1185       C  0.10238226  0.21576215  0.50699564    -0.09400
C1186       C  0.08773190  0.21354293  0.54341110     0.29500
F1187       F  0.09219836  0.22670628  0.57918320    -0.19900
H1188       H  0.05609291  0.19752879  0.57024952     0.17900
H1189       H  0.10807879  0.20169672  0.94186874     0.17900
F1190       F  0.07252599  0.17265704  0.93334543    -0.19900
C1191       C  0.12303379  0.28654077  0.89926233    -0.21300
C1192       C  0.14333563  0.28191508  0.92498126    -0.09400
C1193       C  0.16492141  0.29387809  0.91488035     0.29500
C1194       C  0.16640654  0.30867707  0.87880892    -0.21300
C1195       C  0.14625984  0.31259146  0.85273887    -0.09400
C1196       C  0.12447506  0.30147448  0.86354582     0.29500
F1197       F  0.10439734  0.30495842  0.83966675    -0.19900
H1198       H  0.10558570  0.27937427  0.90672673     0.17900
H1199       H  0.18327336  0.31747885  0.87180069     0.17900
F1200       F  0.18466773  0.29132496  0.93997296    -0.19900
C1201       C  0.16572747  0.27858960  0.60848048    -0.21300
C1202       C  0.14403777  0.27544920  0.58642220    -0.09400
C1203       C  0.12327297  0.28678311  0.60211728     0.29500
C1204       C  0.12436638  0.30163246  0.63840829    -0.21300
C1205       C  0.14630098  0.30590027  0.65949363    -0.09400
C1206       C  0.16694674  0.29365472  0.64463280     0.29500
F1207       F  0.18855031  0.29694748  0.66379510    -0.19900
H1208       H  0.18201662  0.27041063  0.59626669     0.17900
H1209       H  0.10815607  0.31070915  0.64872064     0.17900
F1210       F  0.10215990  0.28454657  0.58078626    -0.19900
C1211       C  0.13626489  0.56012132  0.61895059    -0.21300
C1212       C  0.15760873  0.54881318  0.60559565    -0.09400
C1213       C  0.17923688  0.55551249  0.62581853     0.29500
C1214       C  0.17938525  0.57331130  0.65776427    -0.21300
C1215       C  0.15806892  0.58490207  0.67056329    -0.09400
C1216       C  0.13640871  0.57789913  0.65080962     0.29500
F1217       F  0.11530389  0.58858041  0.66136064    -0.19900
H1218       H  0.11931505  0.55552216  0.60412916     0.17900
H1219       H  0.19634487  0.57813877  0.67231254     0.17900
F1220       F  0.20035128  0.54502824  0.61470520    -0.19900
C1221       C  0.18138977  0.58498808  0.87680878    -0.21300
C1222       C  0.15968707  0.59256087  0.85823641    -0.09400
C1223       C  0.13803891  0.58220587  0.87225488     0.29500
C1224       C  0.13826186  0.56433926  0.90333239    -0.21300
C1225       C  0.15994918  0.55629731  0.92114054    -0.09400
C1226       C  0.18159854  0.56703407  0.90801773     0.29500
F1227       F  0.20296958  0.56016293  0.92493265    -0.19900
H1228       H  0.19830192  0.59276287  0.86684054     0.17900
H1229       H  0.12130781  0.55647024  0.91282193     0.17900
F1230       F  0.11659004  0.58878608  0.85529922    -0.19900
C1231       C  0.09827708  0.78329007  0.47139428    -0.17300
C1232       C  0.11177875  0.78067577  0.50899435    -0.09400
C1233       C  0.10492158  0.79332528  0.54619243     0.29500
C1234       C  0.08438997  0.80753542  0.54617732    -0.21300
C1235       C  0.07037023  0.80973780  0.50902958    -0.09400
C1236       C  0.07761732  0.79762556  0.47130223     0.29500
F1237       F  0.06455511  0.79918444  0.43463226    -0.19900
H1238       H  0.10332334  0.77371086  0.44250633     0.17900
H1239       H  0.07854424  0.81482189  0.07327796     0.17900
F1240       F  0.11711321  0.79025795  0.08174945    -0.19900
C1241       C  0.13819907  0.70353683  0.59482958    -0.21300
C1242       C  0.15896482  0.71627087  0.58294802    -0.09400
C1243       C  0.18052058  0.71136474  0.60517275     0.29500
C1244       C  0.18034086  0.69665948  0.64132567    -0.21300
C1245       C  0.15905762  0.68574754  0.65518531    -0.09400
C1246       C  0.13806132  0.68875756  0.63080828     0.29500
F1247       F  0.11744244  0.67716182  0.64113116    -0.19900
H1248       H  0.12179621  0.70522026  0.57647539     0.17900
H1249       H  0.19702956  0.69368192  0.65832133     0.17900
F1250       F  0.20205160  0.71962166  0.59132078    -0.19900
C1251       C  0.18175836  0.71848936  0.90486539    -0.21300
C1252       C  0.16001769  0.72782408  0.92040305    -0.09400
C1253       C  0.13878637  0.72280909  0.89791504     0.29500
C1254       C  0.13917172  0.70738197  0.86221103    -0.21300
C1255       C  0.16075660  0.69666636  0.84816845    -0.09400
C1256       C  0.18226007  0.70328296  0.86896635     0.29500
F1257       F  0.20366397  0.69390429  0.85655155    -0.19900
H1258       H  0.19825819  0.72185408  0.92221056     0.17900
H1259       H  0.12233899  0.70294154  0.84682453     0.17900
F1260       F  0.11742537  0.73124853  0.91256499    -0.19900
C1261       C  0.44574065  0.17365337  0.61874946    -0.21300
C1262       C  0.45508355  0.15173232  0.60377415    -0.09400
C1263       C  0.44553481  0.13036238  0.62083306     0.29500
C1264       C  0.42722150  0.13105192  0.65174507    -0.21300
C1265       C  0.41779910  0.15294393  0.66663678    -0.09400
C1266       C  0.42735007  0.17433545  0.64965282     0.29500
F1267       F  0.41893060  0.19599571  0.66259857    -0.19900
H1268       H  0.45254405  0.19042253  0.60626379     0.17900
H1269       H  0.42038617  0.11424843  0.66402654     0.17900
F1270       F  0.45377534  0.10865462  0.60775115    -0.19900
C1271       C  0.42435570  0.17345421  0.87032997    -0.21300
C1272       C  0.41592002  0.15197050  0.85242460    -0.09400
C1273       C  0.42612930  0.13013435  0.86589909     0.29500
C1274       C  0.44429948  0.12993400  0.89651292    -0.21300
C1275       C  0.45278614  0.15136682  0.91441152    -0.09400
C1276       C  0.44260816  0.17323946  0.90102188     0.29500
F1277       F  0.45010314  0.19443759  0.91758643    -0.19900
H1278       H  0.41684519  0.19050395  0.86058081     0.17900
H1279       H  0.45179811  0.11284277  0.90606005     0.17900
F1280       F  0.41879010  0.10885534  0.84942781    -0.19900
C1281       C  0.23846036  0.07238376  0.50894203    -0.21300
C1282       C  0.23022755  0.09502272  0.49496742    -0.09400
C1283       C  0.20677733  0.09678259  0.47846651     0.29500
C1284       C  0.19161178  0.07681190  0.47884154    -0.21300
C1285       C  0.19933781  0.05498694  0.49634944    -0.09400
C1286       C  0.22304270  0.05268132  0.51047968     0.29500
F1287       F  0.23120378  0.03146697  0.52601368    -0.19900
H1288       H  0.25667684  0.07006554  0.52025831     0.17900
H1289       H  0.17292940  0.07865713  0.96672336     0.17900
F1290       F  0.19692786  0.11823230  0.96710134    -0.19900
C1291       C  0.22321833  0.20017869  0.48918573    -0.21300
C1292       C  0.21693250  0.17725253  0.50323956    -0.09400
C1293       C  0.19340038  0.17294225  0.51755326     0.29500
C1294       C  0.17628658  0.19142834  0.51707302    -0.21300
C1295       C  0.18255117  0.21447805  0.50280627    -0.09400
C1296       C  0.20625740  0.21905974  0.99616758     0.29500
F1297       F  0.21338131  0.24173239  0.98705536    -0.19900
H1298       H  0.24204281  0.20524540  0.99000217     0.17900
H1299       H  0.15812446  0.18767752  0.52750238     0.17900
F1300       F  0.18721294  0.15110266  0.53310085    -0.19900
C1301       C  0.31308843  0.16914169  0.63211745    -0.21300
C1302       C  0.31409397  0.15085337  0.66286963    -0.09400
C1303       C  0.29961666  0.13054619  0.65778321     0.29500
C1304       C  0.28529158  0.12802430  0.62159811    -0.21300
C1305       C  0.28524128  0.14551820  0.58895259    -0.09400
C1306       C  0.29876150  0.16659546  0.59557502     0.29500
F1307       F  0.29845839  0.18460055  0.56627876    -0.19900
H1308       H  0.32399104  0.18506397  0.63563325     0.17900
H1309       H  0.27420729  0.11230684  0.62057108     0.17900
F1310       F  0.29915828  0.11302090  0.68801831    -0.19900
C1311       C  0.29188352  0.16974726  0.91675456    -0.21300
C1312       C  0.28212563  0.14770213  0.92934271    -0.09400
C1313       C  0.28634292  0.12742230  0.90374955     0.29500
C1314       C  0.30108621  0.12901795  0.86724612    -0.21300
C1315       C  0.31177363  0.15091600  0.85533693    -0.09400
C1316       C  0.30632786  0.17149026  0.87992030     0.29500
F1317       F  0.31591689  0.19309423  0.86984993    -0.19900
H1318       H  0.28896951  0.18550989  0.93642527     0.17900
H1319       H  0.30474881  0.11287619  0.84905106     0.17900
F1320       F  0.27748231  0.10577400  0.91560647    -0.19900
C1321       C  0.56214097  0.12363317  0.88845789    -0.21300
C1322       C  0.55739660  0.14562178  0.90890109    -0.09400
C1323       C  0.57047130  0.16595630  0.89593107     0.29500
C1324       C  0.58791192  0.16413254  0.86361311    -0.21300
C1325       C  0.59280038  0.14207791  0.84345823    -0.09400
C1326       C  0.57955023  0.12180988  0.85616512     0.29500
F1327       F  0.58329542  0.10014786  0.83747798    -0.19900
H1328       H  0.55231997  0.10767588  0.89743566     0.17900
H1329       H  0.59784352  0.18004580  0.85477735     0.17900
F1330       F  0.56679566  0.18756365  0.91486594    -0.19900
C1331       C  0.56699139  0.12398348  0.61344806    -0.21300
C1332       C  0.56189199  0.14613150  0.59420542    -0.09400
C1333       C  0.57591777  0.16618917  0.60507192     0.29500
C1334       C  0.59401738  0.16415852  0.63583833    -0.21300
C1335       C  0.59859102  0.14213835  0.65604434    -0.09400
C1336       C  0.58509487  0.12191765  0.64399513     0.29500
F1337       F  0.58883043  0.10019947  0.66241618    -0.19900
H1338       H  0.55663290  0.10819883  0.60548323     0.17900
H1339       H  0.60434291  0.17992280  0.64405660     0.17900
F1340       F  0.57227003  0.18774721  0.58602483    -0.19900
C1341       C  0.81802704  0.06069033  0.97454272    -0.21300
C1342       C  0.82100914  0.04763500  0.51077214    -0.09400
C1343       C  0.80968671  0.05600552  0.54860276     0.29500
C1344       C  0.79393415  0.07559740  0.54691918    -0.21300
C1345       C  0.78941610  0.08706436  0.50774133    -0.09400
C1346       C  0.80320586  0.08070018  0.97319084     0.29500
F1347       F  0.80111779  0.09283010  0.93556271    -0.19900
H1348       H  0.82740409  0.05547726  0.94547092     0.17900
H1349       H  0.78470337  0.08131137  0.57583632     0.17900
F1350       F  0.81343135  0.04509554  0.58697267    -0.19900
C1351       C  0.71979534  0.10839327  0.90121848    -0.21300
C1352       C  0.72167192  0.12747575  0.93076447    -0.09400
C1353       C  0.70758352  0.14812978  0.92369555     0.29500
C1354       C  0.69358380  0.15020986  0.88679773    -0.21300
C1355       C  0.69272410  0.13152600  0.85676974    -0.09400
C1356       C  0.70559294  0.11038155  0.86470788     0.29500
F1357       F  0.70494692  0.09175382  0.83664652    -0.19900
H1358       H  0.72918527  0.09159999  0.90522141     0.17900
H1359       H  0.68318441  0.16641255  0.88192471     0.17900
F1360       F  0.70780017  0.16658784  0.95212901    -0.19900
C1361       C  0.72718607  0.15218635  0.60880200    -0.21300
C1362       C  0.73188126  0.12999172  0.58952689    -0.09400
C1363       C  0.72270439  0.10911392  0.60841074     0.29500
C1364       C  0.70800779  0.11057662  0.64488415    -0.21300
C1365       C  0.70195517  0.13293568  0.66292883    -0.09400
C1366       C  0.71242921  0.15374711  0.64522936     0.29500
F1367       F  0.70740457  0.17576488  0.66144550    -0.19900
H1368       H  0.73380168  0.16847308  0.59408329     0.17900
H1369       H  0.70041301  0.09422423  0.65768019     0.17900
F1370       F  0.72669209  0.08744749  0.58987815    -0.19900
C1371       C  0.43158582  0.87028885  0.86597906    -0.21300
C1372       C  0.42542121  0.84943497  0.84315129    -0.09400
C1373       C  0.43775103  0.82803287  0.85291850     0.29500
C1374       C  0.45587453  0.82774963  0.88425514    -0.21300
C1375       C  0.46218694  0.84868872  0.90678192    -0.09400
C1376       C  0.44956449  0.86997684  0.89746311     0.29500
F1377       F  0.45420233  0.89051480  0.91925071    -0.19900
H1378       H  0.42227758  0.88696986  0.85976610     0.17900
H1379       H  0.46510428  0.81105165  0.89068274     0.17900
F1380       F  0.43264793  0.80739225  0.83178773    -0.19900
C1381       C  0.43283640  0.82674332  0.64284276    -0.21300
C1382       C  0.42349769  0.84904415  0.65564142    -0.09400
C1383       C  0.43255920  0.87001599  0.63656698     0.29500
C1384       C  0.45074769  0.86860330  0.60595697    -0.21300
C1385       C  0.46033040  0.84636688  0.59350705    -0.09400
C1386       C  0.45108262  0.82533730  0.61210756     0.29500
F1387       F  0.45977781  0.80343707  0.60117736    -0.19900
H1388       H  0.42621266  0.81030932  0.65697789     0.17900
H1389       H  0.45735445  0.88510076  0.59203120     0.17900
F1390       F  0.42394812  0.89198455  0.64729882    -0.19900
C1391       C  0.19431856  0.92617616  0.02960492    -0.21300
C1392       C  0.20022746  0.94792690  0.51190909    -0.09400
C1393       C  0.22394073  0.95164495  0.49883645     0.29500
C1394       C  0.24033313  0.93273190  0.49966174    -0.21300
C1395       C  0.23318373  0.90957054  0.51231801    -0.09400
C1396       C  0.21076935  0.90714990  0.03009845     0.29500
F1397       F  0.20345607  0.88565026  0.04544009    -0.19900
H1398       H  0.17639832  0.92343198  0.04223869     0.17900
H1399       H  0.25852091  0.93604717  0.48890222     0.17900
F1400       F  0.23115364  0.97352168  0.48493014    -0.19900
C1401       C  0.21640314  0.78551377  0.51799313    -0.21300
C1402       C  0.19226172  0.78917246  0.50644879    -0.09400
C1403       C  0.18628043  0.81262930  0.99966290     0.29500
C1404       C  0.20284643  0.83156377  0.99999399    -0.21300
C1405       C  0.22547651  0.82729178  0.50519521    -0.09400
C1406       C  0.23278714  0.80432664  0.51752614     0.29500
F1407       F  0.25602268  0.79997151  0.52799997    -0.19900
H1408       H  0.22271134  0.76788869  0.52716703     0.17900
H1409       H  0.19679809  0.84950503  0.99243720     0.17900
F1410       F  0.16273395  0.81745891  0.99264138    -0.19900
C1411       C  0.29421232  0.88060631  0.88878100    -0.21300
C1412       C  0.29295774  0.86252744  0.92034594    -0.09400
C1413       C  0.30632134  0.84131357  0.91367220     0.29500
C1414       C  0.32081766  0.83866180  0.87734016    -0.21300
C1415       C  0.32247334  0.85710368  0.84699430    -0.09400
C1416       C  0.30875600  0.87794716  0.85268627     0.29500
F1417       F  0.30929745  0.89586306  0.82320894    -0.19900
H1418       H  0.28434238  0.89710575  0.89103063     0.17900
H1419       H  0.33133367  0.82245193  0.87364372     0.17900
F1420       F  0.30565711  0.82321911  0.94278306    -0.19900
C1421       C  0.29185711  0.87844053  0.60887873    -0.21300
C1422       C  0.28981935  0.85881704  0.58093779    -0.09400
C1423       C  0.30224127  0.83759370  0.59076150     0.29500
C1424       C  0.31684711  0.83622340  0.62729136    -0.21300
C1425       C  0.31998346  0.85619542  0.65427770    -0.09400
C1426       C  0.30695654  0.87729857  0.64501138     0.29500
F1427       F  0.30916862  0.89700178  0.67025177    -0.19900
H1428       H  0.28272253  0.89507078  0.60146473     0.17900
H1429       H  0.32663494  0.81979281  0.63329355     0.17900
F1430       F  0.30096111  0.81843306  0.56400787    -0.19900
C1431       C  0.59209249  0.82261029  0.65163318    -0.21300
C1432       C  0.60203418  0.84433113  0.66613907    -0.09400
C1433       C  0.59319415  0.86587174  0.64856885     0.29500
C1434       C  0.57531052  0.86555217  0.61701472    -0.21300
C1435       C  0.56562212  0.84386665  0.60195543    -0.09400
C1436       C  0.57412124  0.82229938  0.62004320     0.29500
F1437       F  0.56523451  0.80083893  0.60722422    -0.19900
H1438       H  0.59834787  0.80571518  0.66453937     0.17900
H1439       H  0.56919573  0.88248216  0.60404534     0.17900
F1440       F  0.60192264  0.88739103  0.66140276    -0.19900
C1441       C  0.59851977  0.86813315  0.86758507    -0.21300
C1442       C  0.60739681  0.84613167  0.85225210    -0.09400
C1443       C  0.59741093  0.82476911  0.86827814     0.29500
C1444       C  0.57875716  0.82552890  0.89819964    -0.21300
C1445       C  0.56958006  0.84748441  0.91302732    -0.09400
C1446       C  0.57984457  0.86888975  0.89764456     0.29500
F1447       F  0.57182278  0.89058958  0.91121824    -0.19900
H1448       H  0.60584187  0.88487667  0.85594507     0.17900
H1449       H  0.57139325  0.80874958  0.90957651     0.17900
F1450       F  0.60533390  0.80303070  0.85474502    -0.19900
C1451       C  0.79633886  0.90868439  0.96914597    -0.21300
C1452       C  0.79482662  0.89487330  0.50553264    -0.09400
C1453       C  0.80497665  0.90329139  0.54417480     0.29500
C1454       C  0.81867454  0.92415404  0.54474396    -0.21300
C1455       C  0.82303773  0.93697565  0.50682028    -0.09400
C1456       C  0.81026555  0.92959644  0.96982306     0.29500
F1457       F  0.81244061  0.94250764  0.93308925    -0.19900
H1458       H  0.78758399  0.90334230  0.93963308     0.17900
H1459       H  0.82619794  0.93004762  0.57502167     0.17900
F1460       F  0.80201285  0.89110120  0.58154007    -0.19900
C1461       C  0.70719948  0.84065086  0.57508774    -0.21300
C1462       C  0.73190181  0.84584924  0.57800232    -0.09400
C1463       C  0.74205811  0.84885624  0.61932096     0.29500
C1464       C  0.72771262  0.84792196  0.65604390    -0.21300
C1465       C  0.70320319  0.84330070  0.65243794    -0.09400
C1466       C  0.69302356  0.83935130  0.61198852     0.29500
F1467       F  0.66918945  0.83479020  0.60814622    -0.19900
H1468       H  0.69843421  0.83745200  0.54483422     0.17900
H1469       H  0.73570891  0.85086455  0.68731525     0.17900
F1470       F  0.76590432  0.85306054  0.62415173    -0.19900
C1471       C  0.72182758  0.86724138  0.86041368    -0.21300
C1472       C  0.71268458  0.84527953  0.84522468    -0.09400
C1473       C  0.72055811  0.82397971  0.86520096     0.29500
C1474       C  0.73552785  0.82492014  0.90132787    -0.21300
C1475       C  0.74325335  0.84694091  0.91798398    -0.09400
C1476       C  0.73687965  0.86809082  0.89649324     0.29500
F1477       F  0.74347181  0.88968630  0.91260248    -0.19900
H1478       H  0.71631840  0.88395239  0.84578038     0.17900
H1479       H  0.73987070  0.80846475  0.91804998     0.17900
F1480       F  0.71265225  0.80226836  0.85171262    -0.19900
C1481       C  0.88589655  0.41266355  0.64033894    -0.21300
C1482       C  0.86384101  0.40511629  0.65766218    -0.09400
C1483       C  0.84259327  0.41576458  0.64205860     0.29500
C1484       C  0.84356320  0.43328936  0.60985108    -0.21300
C1485       C  0.86563752  0.44073128  0.59237877    -0.09400
C1486       C  0.88687101  0.43019490  0.60823455     0.29500
F1487       F  0.90869629  0.43662772  0.59267006    -0.19900
H1488       H  0.90257722  0.40489364  0.65150510     0.17900
H1489       H  0.82689872  0.44104273  0.59856899     0.17900
F1490       F  0.82079145  0.40930573  0.65771080    -0.19900
C1491       C  0.88679964  0.41085757  0.85996227    -0.21300
C1492       C  0.86466455  0.40227549  0.84497749    -0.09400
C1493       C  0.84330729  0.41193764  0.86203270     0.29500
C1494       C  0.84423837  0.42985620  0.89313742    -0.21300
C1495       C  0.86636066  0.43856115  0.90793468    -0.09400
C1496       C  0.88772565  0.42880277  0.89109544     0.29500
F1497       F  0.90955920  0.43658721  0.90436113    -0.19900
H1498       H  0.90351584  0.40378179  0.84741539     0.17900
H1499       H  0.82750229  0.43696750  0.90553534     0.17900
F1500       F  0.82144381  0.40427779  0.84866392    -0.19900
C1501       C  0.93507184  0.18709086  0.53496745    -0.21300
C1502       C  0.94908826  0.18526976  0.49760457    -0.09400
C1503       C  0.94148264  0.19740150  0.96124241     0.29500
C1504       C  0.92046434  0.21133274  0.96117998    -0.21300
C1505       C  0.90636962  0.21257240  0.49813236    -0.09400
C1506       C  0.91391982  0.20035956  0.53522062     0.29500
F1507       F  0.90076414  0.20129290  0.57196830    -0.19900
H1508       H  0.94031037  0.17796023  0.56418616     0.17900
H1509       H  0.91500424  0.22036480  0.93199008     0.17900
F1510       F  0.95425615  0.19534082  0.92423946    -0.19900
C1511       C  0.80065754  0.20954605  0.51346633    -0.21300
C1512       C  0.82467401  0.20495321  0.50188336    -0.09400
C1513       C  0.83147164  0.18134575  0.49155424     0.29500
C1514       C  0.81451778  0.16278570  0.49337273    -0.21300
C1515       C  0.79067123  0.16760120  0.50524674    -0.09400
C1516       C  0.78383423  0.19110500  0.51509797     0.29500
F1517       F  0.76076773  0.19620721  0.52595409    -0.19900
H1518       H  0.79484310  0.22756146  0.52120635     0.17900
H1519       H  0.82062822  0.14430540  0.99813583     0.17900
F1520       F  0.85451437  0.17608568  0.48093101    -0.19900
C1521       C  0.86659924  0.28043844  0.65365151    -0.21300
C1522       C  0.86037317  0.30456623  0.65032296    -0.09400
C1523       C  0.85324084  0.31409289  0.61083870     0.29500
C1524       C  0.85327025  0.29976959  0.57426760    -0.21300
C1525       C  0.86035261  0.27556994  0.57659037    -0.09400
C1526       C  0.86604256  0.26584183  0.61731856     0.29500
F1527       F  0.87129184  0.24222456  0.62193397    -0.19900
H1528       H  0.87163718  0.27289527  0.68441804     0.17900
H1529       H  0.84730194  0.30791993  0.54480596     0.17900
F1530       F  0.84669889  0.33746317  0.60756012    -0.19900
C1531       C  0.83978870  0.29232989  0.86248386    -0.21300
C1532       C  0.86172273  0.29804635  0.84250639    -0.09400
C1533       C  0.88284769  0.28681968  0.85755926     0.29500
C1534       C  0.88198707  0.27127562  0.89297040    -0.21300
C1535       C  0.86021636  0.26677114  0.91410852    -0.09400
C1536       C  0.83905863  0.27710687  0.89813328     0.29500
F1537       F  0.81788018  0.27372882  0.91888461    -0.19900
H1538       H  0.82322881  0.30060444  0.85192324     0.17900
H1539       H  0.89856571  0.26403748  0.90570079     0.17900
F1540       F  0.90450185  0.29166233  0.83953253    -0.19900
C1541       C  0.89048565  0.56967929  0.85367480    -0.21300
C1542       C  0.86888030  0.57976000  0.83879471    -0.09400
C1543       C  0.84713083  0.57137065  0.85651773     0.29500
C1544       C  0.84715529  0.55354709  0.88819500    -0.21300
C1545       C  0.86874526  0.54354003  0.90322991    -0.09400
C1546       C  0.89050505  0.55183273  0.88539469     0.29500
F1547       F  0.91190325  0.54277441  0.89844404    -0.19900
H1548       H  0.90752454  0.57562292  0.84076074     0.17900
H1549       H  0.83010193  0.54764900  0.90111793     0.17900
F1550       F  0.82570208  0.58038372  0.84353552    -0.19900
C1551       C  0.84685808  0.57357345  0.63412020    -0.21300
C1552       C  0.86874975  0.58108852  0.65180572    -0.09400
C1553       C  0.89022285  0.57037728  0.63741744     0.29500
C1554       C  0.88963861  0.55258784  0.60604883    -0.21300
C1555       C  0.86775603  0.54506151  0.58835462    -0.09400
C1556       C  0.84627824  0.55576279  0.60272319     0.29500
F1557       F  0.82466793  0.54916188  0.58653970    -0.19900
H1558       H  0.83007060  0.58150380  0.64453253     0.17900
H1559       H  0.90644064  0.54464813  0.59573090     0.17900
F1560       F  0.91184991  0.57685849  0.65370324    -0.19900
C1561       C  0.84568796  0.80359090  0.99030381    -0.21300
C1562       C  0.84171779  0.77952009  0.50013037    -0.09400
C1563       C  0.81865196  0.77261422  0.51275187     0.29500
C1564       C  0.79994981  0.78922951  0.51288503    -0.21300
C1565       C  0.80383502  0.81324528  0.50085827    -0.09400
C1566       C  0.82704020  0.82057183  0.99174555     0.29500
F1567       F  0.83192510  0.84371221  0.98179704    -0.19900
H1568       H  0.86338006  0.80902109  0.97965396     0.17900
H1569       H  0.78224478  0.78313889  0.52213944     0.17900
F1570       F  0.81410589  0.74955771  0.52390784    -0.19900
C1571       C  0.93951167  0.81028612  0.53374504    -0.21300
C1572       C  0.96222327  0.80406937  0.51768349    -0.09400
C1573       C  0.96614646  0.78103138  0.50154388     0.29500
C1574       C  0.94730309  0.76464146  0.50009007    -0.21300
C1575       C  0.92390831  0.77129105  0.51283905    -0.09400
C1576       C  0.92033905  0.79417407  0.53091532     0.29500
F1577       F  0.89818161  0.80175058  0.54292158    -0.19900
H1578       H  0.93632481  0.82811946  0.54630019     0.17900
H1579       H  0.95005410  0.74943208  0.97309631     0.17900
F1580       F  0.98811234  0.77454782  0.48653638    -0.19900
C1581       C  0.89475846  0.71261248  0.88084975    -0.21300
C1582       C  0.87668104  0.71377759  0.91256723    -0.09400
C1583       C  0.85576328  0.69989488  0.90665491     0.29500
C1584       C  0.85344829  0.68491575  0.87097384    -0.21300
C1585       C  0.87196006  0.68329472  0.84060440    -0.09400
C1586       C  0.89245352  0.69759048  0.84544837     0.29500
F1587       F  0.91043167  0.69706914  0.81591414    -0.19900
H1588       H  0.91105439  0.72282301  0.88256319     0.17900
H1589       H  0.83751072  0.67396643  0.86789906     0.17900
F1590       F  0.83772919  0.70038920  0.93605734    -0.19900
C1591       C  0.88955138  0.69971007  0.64289975    -0.21300
C1592       C  0.86974468  0.68446868  0.64925385    -0.09400
C1593       C  0.85071082  0.68534626  0.61951317     0.29500
C1594       C  0.85225914  0.69996242  0.58305598    -0.21300
C1595       C  0.87242242  0.71448238  0.57598409    -0.09400
C1596       C  0.89076903  0.71481678  0.60687683     0.29500
F1597       F  0.91056030  0.72854861  0.60079863    -0.19900
H1598       H  0.90436356  0.69954457  0.66538795     0.17900
H1599       H  0.83798495  0.69940115  0.55947761     0.17900
F1600       F  0.83124673  0.67098116  0.62412461    -0.19900
loop_ 
_geom_bond_atom_site_label_1 
_geom_bond_atom_site_label_2 
_geom_bond_distance 
_geom_bond_site_symmetry_2 
_ccdc_geom_bond_type 
C1            C2   1.530       .  S
C1            C7   1.535       .  S
C1            C5   1.539       .  S
C1          C782   1.527       .  S
C2            H9   1.087       .  S
C2          C803   1.360       .  D
C3            C4   1.545   1_556  S
C3          C802   1.361       .  D
C3          C762   1.475   1_556  S
C4            C8   1.543       .  S
C4            C6   1.546   1_554  S
C4           H10   1.108       .  S
C5           H11   1.078       .  S
C5          C806   1.368       .  D
C6          C805   1.368       .  D
C6          C775   1.492   1_556  S
C7          H812   1.087       .  S
C7          C808   1.364       .  D
C8          C807   1.361   1_554  D
C8          C795   1.480       .  S
H12         C807   1.087       .  S
O13         Cu21   2.001       .  S
O13          C23   1.277       .  A
O14         Cu21   2.002       .  S
O14          C24   1.277       .  A
O15         Cu21   2.025       .  S
O15          C25   1.280       .  A
O16         Cu21   2.021       .  S
O16          C26   1.280       .  A
O17         Cu22   2.022       .  S
O17          C26   1.280       .  A
O18         Cu22   2.021       .  S
O18          C25   1.280       .  A
O19         Cu22   1.992       .  S
O19          C24   1.276       .  A
O20         Cu22   1.991       .  S
O20          C23   1.276       .  A
Cu21        Cu22   2.368       .  S
C23         C752   1.476       .  S
C24         C785   1.473       .  S
C25         C792   1.495       .  S
C26         C742   1.494       .  S
C27          C28   1.527       .  S
C27          C33   1.535   1_554  S
C27          C31   1.529       .  S
C27         C725   1.519       .  S
C28          H35   1.087       .  S
C28          C29   1.364       .  D
C29         C830   1.550   1_554  S
C29         C712   1.485   1_554  S
C30          C34   1.548       .  S
C30         C829   1.552       .  S
C30         C832   1.545       .  S
C30          H36   1.110       .  S
C31          H37   1.087       .  S
C31          C32   1.361       .  D
C32         C830   1.546   1_554  S
C32         C705   1.481   1_554  S
C33          H38   1.083       .  S
C33         C834   1.364       .  D
C34         C833   1.362       .  D
C34         C735   1.479       .  S
O39         Cu47   1.986       .  S
O39          C49   1.275       .  A
O40         Cu47   1.983       .  S
O40          C50   1.273       .  A
O41         Cu47   2.017       .  S
O41          C51   1.280       .  A
O42         Cu47   2.014       .  S
O42          C52   1.279       .  A
O43         Cu48   2.023       .  S
O43          C52   1.280       .  A
O44         Cu48   2.021       .  S
O44          C51   1.279       .  A
O45         Cu48   1.997       .  S
O45          C50   1.276       .  A
O46         Cu48   2.004       .  S
O46          C49   1.278       .  A
Cu47        Cu48   2.372       .  S
C49         C692   1.475       .  S
C50         C722   1.452       .  S
C51         C732   1.490       .  S
C52         C682   1.492       .  S
O53         Cu61   2.023   1_554  S
O53          C63   1.280       .  A
O54        Cu861   2.024       .  S
O54          C64   1.280       .  A
O55        Cu861   1.993       .  S
O55          C65   1.277       .  A
O56         Cu61   1.996   1_554  S
O56          C66   1.276       .  A
O57         Cu62   1.994   1_554  S
O57          C66   1.277       .  A
O58        Cu862   1.998       .  S
O58          C65   1.277       .  A
O59        Cu862   2.019       .  S
O59          C64   1.279       .  A
O60         Cu62   2.017   1_554  S
O60          C63   1.279       .  A
Cu61        O854   2.023       .  S
Cu61        O855   1.995       .  S
Cu61        Cu62   2.368       .  S
Cu62        O858   1.994       .  S
Cu62        O859   2.020       .  S
C63         C685   1.492       .  S
C64         C745   1.494       .  S
C65         C695   1.475       .  S
C66         C755   1.476       .  S
C67          C68   1.528       .  S
C67          C73   1.537   1_554  S
C67          C71   1.529       .  S
C67         C662   1.522       .  S
C68          H75   1.086       .  S
C68          C69   1.367       .  D
C69         C870   1.552   1_554  S
C69         C765   1.492       .  S
C70          C74   1.550       .  S
C70         C869   1.552       .  S
C70         C872   1.550       .  S
C70          H76   1.109       .  S
C71          H77   1.087       .  S
C71          C72   1.362       .  D
C72         C870   1.547   1_554  S
C72         C652   1.482       .  S
C73          H78   1.082       .  S
C73         C874   1.363       .  D
C74         C873   1.363       .  D
C74         C675   1.483       .  S
O79         Cu87   1.992       .  S
O79          C89   1.276       .  A
O80         Cu87   1.989       .  S
O80          C90   1.274       .  A
O81         Cu87   2.037       .  S
O81          C91   1.282       .  A
O82         Cu87   2.031       .  S
O82          C92   1.281       .  A
O83         Cu88   2.017       .  S
O83          C92   1.279       .  A
O84         Cu88   2.015       .  S
O84          C91   1.279       .  A
O85         Cu88   2.000       .  S
O85          C90   1.276       .  A
O86         Cu88   2.005       .  S
O86          C89   1.278       .  A
Cu87        Cu88   2.370       .  S
C89         C642   1.478       .  S
C90         C665   1.455       .  S
C91         C672   1.497       .  S
C92         C632   1.495       .  S
C93          C94   1.532       .  S
C93          C99   1.532       .  S
C93          C97   1.538       .  S
C93         C612   1.527       .  S
C94         H101   1.087       .  S
C94         C895   1.361       .  D
C95          C96   1.547       .  S
C95         C894   1.360   1_554  D
C95         C605   1.476       .  S
C96         C100   1.548       .  S
C96          C98   1.549       .  S
C96         H102   1.109       .  S
C97         H103   1.080       .  S
C97         C898   1.367       .  D
C98         C897   1.367   1_554  D
C98         C595   1.494       .  S
C99         H904   1.087       .  S
C99         C900   1.363       .  D
C100        C899   1.364       .  D
C100        C622   1.486       .  S
H104        C899   1.087       .  S
O105       Cu113   2.025       .  S
O105        C115   1.279       .  A
O106       Cu113   2.026       .  S
O106        C116   1.281       .  A
O107       Cu113   1.991       .  S
O107        C117   1.276       .  A
O108       Cu113   1.988       .  S
O108        C118   1.275       .  A
O109       Cu114   2.012       .  S
O109        C118   1.279       .  A
O110       Cu114   2.007       .  S
O110        C117   1.278       .  A
O111       Cu114   2.026       .  S
O111        C116   1.280       .  A
O112       Cu114   2.027       .  S
O112        C115   1.281       .  A
Cu113      Cu114   2.368       .  S
C115        C625   1.492       .  S
C116        C572   1.496       .  S
C117        C582   1.478       .  S
C118        C615   1.477       .  S
O119       Cu127   1.994       .  S
O119        C129   1.277       .  A
O120       Cu927   1.990       .  S
O120        C130   1.275       .  A
O121       Cu927   2.020       .  S
O121        C131   1.279       .  A
O122       Cu127   2.024       .  S
O122        C132   1.280       .  A
O123       Cu128   2.024       .  S
O123        C132   1.280       .  A
O124       Cu928   2.032       .  S
O124        C131   1.281       .  A
O125       Cu928   2.005       .  S
O125        C130   1.279       .  A
O126       Cu128   2.004       .  S
O126        C129   1.277       .  A
Cu127       O920   2.005   1_554  S
Cu127       O921   2.025   1_554  S
Cu127      Cu128   2.367       .  S
Cu128       O924   2.028   1_554  S
Cu128       O925   2.004   1_554  S
C129        C585   1.478       .  S
C130        C645   1.478       .  S
C131        C575   1.497       .  S
C132        C635   1.496       .  S
C133        C134   1.534       .  S
C133        C139   1.530       .  S
C133        C137   1.538       .  S
C133        C552   1.525       .  S
C134        H141   1.087       .  S
C134        C935   1.361       .  D
C135        C136   1.546       .  S
C135        C934   1.362   1_554  D
C135        C715   1.481       .  S
C136        C140   1.552       .  S
C136        C138   1.541       .  S
C136        H142   1.110       .  S
C137        H143   1.076       .  S
C137        C938   1.362       .  D
C138        C937   1.361   1_554  D
C138        C545   1.477       .  S
C139        H944   1.087       .  S
C139        C940   1.365       .  D
C140        C939   1.365       .  D
C140        C562   1.483       .  S
H144        C939   1.087       .  S
O145       Cu153   2.007       .  S
O145        C155   1.278       .  A
O146       Cu153   2.015       .  S
O146        C156   1.280       .  A
O147       Cu153   2.020       .  S
O147        C157   1.279       .  A
O148       Cu153   2.031       .  S
O148        C158   1.280       .  A
O149       Cu154   2.014       .  S
O149        C158   1.279       .  A
O150       Cu154   2.010       .  S
O150        C157   1.278       .  A
O151       Cu154   1.983       .  S
O151        C156   1.275       .  A
O152       Cu154   1.979       .  S
O152        C155   1.275       .  A
Cu153      Cu154   2.369       .  S
C155        C555   1.468       .  S
C156        C535   1.479       .  S
C157        C525   1.488       .  S
C158        C565   1.493       .  S
C159        C160   1.530       .  S
C159        C165   1.533       .  S
C159        C163   1.539       .  S
C159        C505   1.524       .  S
C160        H167   1.087       .  S
C160        C161   1.360       .  D
C161        C962   1.548   1_554  S
C161        C492   1.474       .  S
C162        C166   1.546       .  S
C162        C961   1.546       .  S
C162        C964   1.549       .  S
C162        H168   1.109       .  S
C163        H169   1.079       .  S
C163        C164   1.366       .  D
C164        C962   1.546   1_554  S
C164        C482   1.490   1_554  S
C165        H170   1.087       .  S
C165        C966   1.363   1_554  D
C166        C965   1.364       .  D
C166        C512   1.482       .  S
O171       Cu179   2.014       .  S
O171        C181   1.279       .  A
O172       Cu179   2.012       .  S
O172        C182   1.279       .  A
O173       Cu179   2.026       .  S
O173        C183   1.280       .  A
O174       Cu179   2.021       .  S
O174        C184   1.279       .  A
O175       Cu180   2.012       .  S
O175        C184   1.279       .  A
O176       Cu180   2.013       .  S
O176        C183   1.279       .  A
O177       Cu180   1.968       .  S
O177        C182   1.273       .  A
O178       Cu180   1.976       .  S
O178        C181   1.274       .  A
Cu179      Cu180   2.369       .  S
C181        C472   1.477       .  S
C182        C502   1.473       .  S
C183        C515   1.489       .  S
C184        C465   1.489       .  S
O185       Cu193   2.022       .  S
O185        C195   1.280       .  A
O186       Cu993   2.022       .  S
O186        C196   1.279       .  A
O187       Cu993   2.001       .  S
O187        C197   1.277       .  A
O188       Cu193   1.999       .  S
O188        C198   1.276       .  A
O189       Cu194   2.001       .  S
O189        C198   1.278       .  A
O190       Cu994   1.986       .  S
O190        C197   1.277       .  A
O191       Cu994   2.011       .  S
O191        C196   1.279       .  A
O192       Cu194   2.009       .  S
O192        C195   1.278       .  A
Cu193       O986   2.021   1_554  S
Cu193       O987   1.995   1_554  S
Cu193      Cu194   2.369       .  S
Cu194       O990   1.997   1_554  S
Cu194       O991   2.008   1_554  S
C195        C462   1.488       .  S
C196        C522   1.489       .  S
C197        C475   1.476       .  S
C198        C532   1.478       .  S
C199        C200   1.535       .  S
C199        C205   1.525   1_554  S
C199        C203   1.535       .  S
C199        C442   1.525       .  S
C200        H207   1.085       .  S
C200        C201   1.366       .  D
C201       C1002   1.550   1_554  S
C201        C602   1.486       .  S
C202        C206   1.549       .  S
C202       C1001   1.549       .  S
C202       C1004   1.544       .  S
C202        H208   1.110       .  S
C203        H209   1.084       .  S
C203        C204   1.362       .  D
C204       C1002   1.543   1_554  S
C204        C432   1.484       .  S
C205        H210   1.087       .  S
C205       C1006   1.364       .  D
C206       C1005   1.363       .  D
C206        C452   1.483       .  S
O211       Cu219   2.005       .  S
O211        C221   1.278       .  A
O212       Cu219   2.008       .  S
O212        C222   1.278       .  A
O213       Cu219   2.025       .  S
O213        C223   1.280       .  A
O214       Cu219   2.023       .  S
O214        C224   1.280       .  A
O215       Cu220   2.023       .  S
O215        C224   1.280       .  A
O216       Cu220   2.025       .  S
O216        C223   1.280       .  A
O217       Cu220   1.985       .  S
O217        C222   1.275       .  A
O218       Cu220   1.988       .  S
O218        C221   1.275       .  A
Cu219      Cu220   2.367       .  S
C221        C422   1.476       .  S
C222        C445   1.478       .  S
C223        C455   1.495       .  S
C224        C415   1.495       .  S
C225        C226   1.532       .  S
C225        C231   1.529       .  S
C225        C229   1.533       .  S
C225        C392   1.524       .  S
C226        H233   1.086       .  S
C226       C1027   1.366       .  D
C227        C228   1.548       .  S
C227       C1026   1.366   1_554  D
C227        C495   1.486       .  S
C228        C232   1.548       .  S
C228        C230   1.543       .  S
C228        H234   1.111       .  S
C229        H235   1.081       .  S
C229       C1030   1.361       .  D
C230       C1029   1.361   1_554  D
C230        C385   1.477       .  S
C231       H1036   1.087       .  S
C231       C1032   1.364       .  D
C232       C1031   1.364       .  D
C232        C402   1.483       .  S
H236       C1031   1.087       .  S
O237       Cu245   1.991       .  S
O237        C247   1.276       .  A
O238       Cu245   1.996       .  S
O238        C248   1.276       .  A
O239       Cu245   2.032       .  S
O239        C249   1.281       .  A
O240       Cu245   2.027       .  S
O240        C250   1.280       .  A
O241       Cu246   2.023       .  S
O241        C250   1.280       .  A
O242       Cu246   2.021       .  S
O242        C249   1.280       .  A
O243       Cu246   1.992       .  S
O243        C248   1.276       .  A
O244       Cu246   1.990       .  S
O244        C247   1.276       .  A
Cu245      Cu246   2.368       .  S
C247        C372   1.472       .  S
C248        C395   1.472       .  S
C249        C405   1.497       .  S
C250        C362   1.496       .  S
O251       Cu259   2.030       .  S
O251        C261   1.281       .  A
O252      Cu1059   2.030       .  S
O252        C262   1.281       .  A
O253      Cu1059   1.999       .  S
O253        C263   1.276       .  A
O254       Cu259   1.996       .  S
O254        C264   1.277       .  A
O255       Cu260   1.988       .  S
O255        C264   1.275       .  A
O256      Cu1060   1.995       .  S
O256        C263   1.277       .  A
O257      Cu1060   2.023       .  S
O257        C262   1.279       .  A
O258       Cu260   2.019       .  S
O258        C261   1.280       .  A
Cu259      O1052   2.033   1_554  S
Cu259      O1053   1.999   1_554  S
Cu259      Cu260   2.368       .  S
Cu260      O1056   1.986   1_554  S
Cu260      O1057   2.019   1_554  S
C261        C412   1.496       .  S
C262        C365   1.497       .  S
C263        C425   1.476       .  S
C264        C375   1.473       .  S
O265       Cu273   1.992       .  S
O265       C1075   1.275       .  A
O266       Cu273   1.993   1_545  S
O266       C1076   1.273       .  A
O267       Cu273   2.024       .  S
O267       C1077   1.280       .  A
O268       Cu273   2.016   1_545  S
O268       C1078   1.280       .  A
O269       Cu274   1.990       .  S
O269        C278   1.276   1_554  A
O270       Cu274   1.991   1_565  S
O270        C277   1.273       .  A
O271       Cu274   2.017       .  S
O271        C276   1.280   1_554  A
O272       Cu274   2.008   1_565  S
O272        C275   1.279       .  A
Cu273     Cu1074   2.372   1_565  S
Cu274     Cu1073   2.373   1_544  S
C275       O1065   1.275   1_554  A
C275        C355   1.476       .  S
C276       O1066   1.273       .  A
C276        C485   1.462       .  S
C277       O1067   1.281   1_554  A
C277        C592   1.468       .  S
C278       O1068   1.280       .  A
C278        C342   1.483       .  S
O279       Cu287   2.006   1_655  S
O279       C1089   1.276       .  A
O280       Cu287   1.993       .  S
O280       C1090   1.276       .  A
O281       Cu287   2.014   1_655  S
O281       C1091   1.280       .  A
O282       Cu287   2.016       .  S
O282       C1092   1.281       .  A
O283       Cu288   1.994       .  S
O283        C292   1.275       .  A
O284       Cu288   1.988   1_655  S
O284        C291   1.275       .  A
O285       Cu288   2.017       .  S
O285        C290   1.280       .  A
O286       Cu288   2.015   1_655  S
O286        C289   1.281       .  A
Cu287     Cu1088   2.369       .  S
Cu288     Cu1087   2.370   1_554  S
C289       O1079   1.275   1_554  A
C289        C702   1.484   1_554  S
C290       O1080   1.275   1_554  A
C290        C345   1.482       .  S
C291       O1081   1.279   1_554  A
C291        C335   1.479       .  S
C292       O1082   1.280   1_554  A
C292        C382   1.479       .  S
O293       Cu301   1.998   1_655  S
O293        C303   1.275       .  A
O294       Cu301   1.989       .  S
O294        C304   1.275       .  A
O295       Cu301   2.004   1_655  S
O295        C305   1.278       .  A
O296       Cu301   2.013       .  S
O296        C306   1.281       .  A
O297       Cu302   1.991       .  S
O297       C1106   1.274       .  A
O298       Cu302   1.988   1_655  S
O298       C1105   1.275       .  A
O299       Cu302   2.020       .  S
O299       C1104   1.281       .  A
O300       Cu302   2.015   1_655  S
O300       C1103   1.279       .  A
Cu301     Cu1102   2.372   1_554  S
Cu302     Cu1101   2.372       .  S
C303       O1100   1.278   1_554  A
C303        C772   1.463       .  S
C304       O1099   1.279   1_554  A
C304        C352   1.476       .  S
C305       O1098   1.277   1_554  A
C305        C325   1.478       .  S
C306       O1097   1.275   1_554  A
C306        C435   1.483       .  S
O307       Cu315   1.995       .  S
O307        C317   1.276       .  A
O308       Cu315   1.999   1_545  S
O308        C318   1.275       .  A
O309       Cu315   2.020       .  S
O309        C319   1.282       .  A
O310       Cu315   2.015   1_545  S
O310        C320   1.279       .  A
O311       Cu316   1.985   1_545  S
O311       C1120   1.275       .  A
O312       Cu316   1.992       .  S
O312       C1119   1.274       .  A
O313       Cu316   2.005   1_545  S
O313       C1118   1.280       .  A
O314       Cu316   2.002       .  S
O314       C1117   1.279       .  A
Cu315     Cu1116   2.370   1_554  S
Cu316     Cu1115   2.370       .  S
C317       O1114   1.279   1_554  A
C317        C322   1.477       .  S
C318       O1113   1.280   1_554  A
C318        C542   1.479       .  S
C319       O1112   1.275   1_554  A
C319        C655   1.484       .  S
C320       O1111   1.275   1_554  A
C320        C332   1.479       .  S
C321        C326   1.393       .  A
C321       C1122   1.403       .  A
C321        H328   1.083       .  S
C322        C323   1.409       .  A
C322       C1121   1.403   1_554  A
C323        C324   1.396       .  A
C323        F330   1.358       .  S
C324        C325   1.404       .  A
C324        H329   1.083       .  S
C325       C1126   1.408   1_554  A
C326       C1125   1.409       .  A
C326        F327   1.358       .  S
C331        C336   1.395       .  A
C331       C1132   1.408       .  A
C331        H338   1.083       .  S
C332        C333   1.406       .  A
C332       C1131   1.407   1_554  A
C333        C334   1.397       .  A
C333        F340   1.358       .  S
C334        C335   1.408       .  A
C334        H339   1.083       .  S
C335       C1136   1.406   1_554  A
C336       C1135   1.406       .  A
C336        F337   1.358       .  S
C341        C342   1.407   1_554  A
C341        C346   1.395       .  A
C341        H348   1.083       .  S
C342       C1143   1.407       .  A
C343        C344   1.397       .  A
C343       C1142   1.407       .  A
C343        F350   1.357       .  S
C344       C1145   1.407       .  A
C344        H349   1.083       .  S
C345        C346   1.406       .  A
C345       C1144   1.408   1_554  A
C346        F347   1.357       .  S
C351        C352   1.403   1_556  A
C351        C356   1.393       .  A
C351       H1158   1.083       .  S
C352        C353   1.410       .  A
C353        C354   1.395       .  A
C353        F360   1.357       .  S
C354        C355   1.403       .  A
C354        H359   1.083       .  S
C355        C356   1.409   1_554  A
C356       F1157   1.358       .  S
F357       C1156   1.358       .  S
H358       C1151   1.083       .  S
C361        C362   1.407       .  A
C361        C366   1.403       .  A
C361        H368   1.083       .  S
C362        C363   1.411       .  A
C363        C364   1.404       .  A
C363        F370   1.357       .  S
C364        C365   1.408       .  A
C364        H369   1.083       .  S
C365        C366   1.411       .  A
C366        F367   1.357       .  S
C371        C372   1.404       .  A
C371        C376   1.393       .  A
C371        H378   1.083       .  S
C372        C373   1.407       .  A
C373        C374   1.392       .  A
C373        F380   1.357       .  S
C374        C375   1.404       .  A
C374        H379   1.083       .  S
C375        C376   1.408       .  A
C376        F377   1.358       .  S
C381        C382   1.410       .  A
C381        C386   1.402       .  A
C381        H388   1.083       .  S
C382       C1183   1.406   1_554  A
C383        C384   1.392       .  A
C383       C1182   1.406       .  A
C383        F390   1.358       .  S
C384       C1185   1.405       .  A
C384        H389   1.084       .  S
C385        C386   1.402       .  A
C385       C1184   1.404   1_554  A
C386        F387   1.357       .  S
C391        C392   1.411       .  A
C391        C396   1.391       .  A
C391        H398   1.076       .  S
C392        C393   1.411       .  A
C393        C394   1.395       .  A
C393        F400   1.358       .  S
C394        C395   1.403       .  A
C394        H399   1.083       .  S
C395        C396   1.403       .  A
C396        F397   1.358       .  S
C401        C402   1.402       .  A
C401        C406   1.405       .  A
C401        H408   1.083       .  S
C402        C403   1.403       .  A
C403        C404   1.401       .  A
C403        F410   1.358       .  S
C404        C405   1.409       .  A
C404        H409   1.083       .  S
C405        C406   1.413       .  A
C406        F407   1.357       .  S
C411        C412   1.408       .  A
C411        C416   1.402       .  A
C411        H418   1.083       .  S
C412        C413   1.411       .  A
C413        C414   1.404       .  A
C413        F420   1.357       .  S
C414        C415   1.408       .  A
C414        H419   1.083       .  S
C415        C416   1.410       .  A
C416        F417   1.357       .  S
C421        C422   1.405       .  A
C421        C426   1.396       .  A
C421        H428   1.083       .  S
C422        C423   1.408       .  A
C423        C424   1.392       .  A
C423        F430   1.358       .  S
C424        C425   1.403       .  A
C424        H429   1.083       .  S
C425        C426   1.408       .  A
C426        F427   1.357       .  S
C431        C432   1.401   1_556  A
C431        C436   1.404       .  A
C431        H438   1.083       .  S
C432        C433   1.409       .  A
C433        C434   1.391       .  A
C433       F1240   1.358       .  S
C434        C435   1.402       .  A
C434       H1239   1.083       .  S
C435        C436   1.414   1_554  A
C436        F437   1.357       .  S
H439       C1234   1.083       .  S
F440       C1233   1.358       .  S
C441        C442   1.408       .  A
C441        C446   1.390       .  A
C441        H448   1.081       .  S
C442        C443   1.412       .  A
C443        C444   1.398       .  A
C443        F450   1.357       .  S
C444        C445   1.405       .  A
C444        H449   1.083       .  S
C445        C446   1.407       .  A
C446        F447   1.358       .  S
C451        C452   1.402       .  A
C451        C456   1.401       .  A
C451        H458   1.084       .  S
C452        C453   1.404       .  A
C453        C454   1.405       .  A
C453        F460   1.357       .  S
C454        C455   1.410       .  A
C454        H459   1.083       .  S
C455        C456   1.412       .  A
C456        F457   1.357       .  S
C461        C462   1.406       .  A
C461        C466   1.401       .  A
C461        H468   1.083       .  S
C462        C463   1.410       .  A
C463        C464   1.399       .  A
C463        F470   1.357       .  S
C464        C465   1.406       .  A
C464        H469   1.083       .  S
C465        C466   1.410       .  A
C466        F467   1.357       .  S
C471        C472   1.405       .  A
C471        C476   1.398       .  A
C471        H478   1.083       .  S
C472        C473   1.409       .  A
C473        C474   1.389       .  A
C473        F480   1.358       .  S
C474        C475   1.403       .  A
C474        H479   1.083       .  S
C475        C476   1.409       .  A
C476        F477   1.357       .  S
C481        C482   1.412   1_554  A
C481        C486   1.395       .  A
C481        H488   1.083       .  S
C482        C483   1.408       .  A
C483        C484   1.398       .  A
C483       F1290   1.355       .  S
C484        C485   1.401       .  A
C484       H1289   1.084       .  S
C485        C486   1.397   1_556  A
C486        F487   1.358       .  S
H489       C1284   1.084       .  S
F490       C1283   1.355       .  S
C491        C492   1.399   1_556  A
C491       C1296   1.395       .  A
C491       H1298   1.084       .  S
C492        C493   1.406       .  A
C493        C494   1.404       .  A
C493        F500   1.357       .  S
C494        C495   1.405       .  A
C494        H499   1.083       .  S
C495       C1296   1.409   1_554  A
C496       C1291   1.396       .  A
C496       C1295   1.411       .  A
C496        F497   1.357       .  S
H498       C1291   1.084       .  S
C501        C502   1.402       .  A
C501        C506   1.397       .  A
C501        H508   1.083       .  S
C502        C503   1.405       .  A
C503        C504   1.388       .  A
C503        F510   1.358       .  S
C504        C505   1.408       .  A
C504        H509   1.075       .  S
C505        C506   1.413       .  A
C506        F507   1.358       .  S
C511        C512   1.404       .  A
C511        C516   1.402       .  A
C511        H518   1.084       .  S
C512        C513   1.402       .  A
C513        C514   1.402       .  A
C513        F520   1.357       .  S
C514        C515   1.409       .  A
C514        H519   1.083       .  S
C515        C516   1.410       .  A
C516        F517   1.357       .  S
C521        C522   1.406       .  A
C521        C526   1.398       .  A
C521        H528   1.083       .  S
C522        C523   1.410       .  A
C523        C524   1.402       .  A
C523        F530   1.357       .  S
C524        C525   1.407       .  A
C524        H529   1.083       .  S
C525        C526   1.409       .  A
C526        F527   1.357       .  S
C531        C532   1.403       .  A
C531        C536   1.394       .  A
C531        H538   1.083       .  S
C532        C533   1.409       .  A
C533        C534   1.397       .  A
C533        F540   1.357       .  S
C534        C535   1.404       .  A
C534        H539   1.083       .  S
C535        C536   1.410       .  A
C536        F537   1.358       .  S
C541        C546   1.389       .  A
C541       C1342   1.401       .  A
C541        H548   1.083       .  S
C542        C543   1.413       .  A
C542       C1341   1.402   1_554  A
C543        C544   1.403       .  A
C543        F550   1.357       .  S
C544        C545   1.401       .  A
C544        H549   1.083       .  S
C545       C1346   1.406   1_554  A
C546       C1345   1.407       .  A
C546        F547   1.358       .  S
C551        C552   1.411       .  A
C551        C556   1.389       .  A
C551        H558   1.069       .  S
C552        C553   1.412       .  A
C553        C554   1.397       .  A
C553        F560   1.358       .  S
C554        C555   1.401       .  A
C554        H559   1.083       .  S
C555        C556   1.401       .  A
C556        F557   1.358       .  S
C561        C562   1.403       .  A
C561        C566   1.407       .  A
C561        H568   1.083       .  S
C562        C563   1.405       .  A
C563        C564   1.398       .  A
C563        F570   1.358       .  S
C564        C565   1.407       .  A
C564        H569   1.083       .  S
C565        C566   1.413       .  A
C566        F567   1.357       .  S
C571        C572   1.407       .  A
C571        C576   1.402       .  A
C571        H578   1.083       .  S
C572        C573   1.411       .  A
C573        C574   1.405       .  A
C573        F580   1.357       .  S
C574        C575   1.408       .  A
C574        H579   1.083       .  S
C575        C576   1.411       .  A
C576        F577   1.357       .  S
C581        C582   1.406       .  A
C581        C586   1.399       .  A
C581        H588   1.083       .  S
C582        C583   1.408       .  A
C583        C584   1.391       .  A
C583        F590   1.358       .  S
C584        C585   1.404       .  A
C584        H589   1.083       .  S
C585        C586   1.409       .  A
C586        F587   1.357       .  S
C591        C596   1.401       .  A
C591       C1392   1.403       .  A
C591        H598   1.084       .  S
C592        C593   1.397   1_554  A
C592       C1391   1.404       .  A
C593        C594   1.395       .  A
C593        F600   1.358       .  S
C594        C595   1.412   1_556  A
C594        H599   1.083       .  S
C595       C1396   1.409       .  A
C596       C1395   1.409       .  A
C596        F597   1.356       .  S
C601        C602   1.405       .  A
C601        C606   1.395       .  A
C601        H608   1.083       .  S
C602       C1403   1.408   1_554  A
C603        C604   1.405       .  A
C603       C1402   1.408       .  A
C603        F610   1.357       .  S
C604       C1405   1.405       .  A
C604        H609   1.083       .  S
C605        C606   1.402       .  A
C605       C1404   1.404   1_554  A
C606        F607   1.358       .  S
C611        C612   1.410       .  A
C611        C616   1.394       .  A
C611        H618   1.076       .  S
C612        C613   1.412       .  A
C613        C614   1.396       .  A
C613        F620   1.358       .  S
C614        C615   1.402       .  A
C614        H619   1.083       .  S
C615        C616   1.406       .  A
C616        F617   1.358       .  S
C621        C622   1.403       .  A
C621        C626   1.406       .  A
C621        H628   1.083       .  S
C622        C623   1.406       .  A
C623        C624   1.401       .  A
C623        F630   1.357       .  S
C624        C625   1.407       .  A
C624        H629   1.083       .  S
C625        C626   1.413       .  A
C626        F627   1.357       .  S
C631        C632   1.407       .  A
C631        C636   1.404       .  A
C631        H638   1.083       .  S
C632        C633   1.412       .  A
C633        C634   1.402       .  A
C633        F640   1.357       .  S
C634        C635   1.407       .  A
C634        H639   1.083       .  S
C635        C636   1.412       .  A
C636        F637   1.357       .  S
C641        C642   1.404       .  A
C641        C646   1.395       .  A
C641        H648   1.083       .  S
C642        C643   1.409       .  A
C643        C644   1.394       .  A
C643        F650   1.357       .  S
C644        C645   1.404       .  A
C644        H649   1.083       .  S
C645        C646   1.409       .  A
C646        F647   1.358       .  S
C651        C656   1.403       .  A
C651       C1452   1.401       .  A
C651        H658   1.083       .  S
C652        C653   1.408       .  A
C652       C1451   1.400   1_554  A
C653        C654   1.393       .  A
C653        F660   1.358       .  S
C654        C655   1.402       .  A
C654        H659   1.083       .  S
C655       C1456   1.414   1_554  A
C656       C1455   1.415       .  A
C656        F657   1.357       .  S
C661        C662   1.410       .  A
C661        C666   1.394       .  A
C661        H668   1.077       .  S
C662        C663   1.415       .  A
C663        C664   1.393       .  A
C663        F670   1.358       .  S
C664        C665   1.394       .  A
C664        H669   1.084       .  S
C665        C666   1.399       .  A
C666        F667   1.358       .  S
C671        C672   1.411       .  A
C671        C676   1.403       .  A
C671        H678   1.083       .  S
C672        C673   1.412       .  A
C673        C674   1.404       .  A
C673        F680   1.357       .  S
C674        C675   1.404       .  A
C674        H679   1.083       .  S
C675        C676   1.403       .  A
C676        F677   1.358       .  S
C681        C682   1.407       .  A
C681        C686   1.402       .  A
C681        H688   1.083       .  S
C682        C683   1.411       .  A
C683        C684   1.401       .  A
C683        F690   1.357       .  S
C684        C685   1.407       .  A
C684        H689   1.083       .  S
C685        C686   1.411       .  A
C686        F687   1.357       .  S
C691        C692   1.404       .  A
C691        C696   1.396       .  A
C691        H698   1.083       .  S
C692        C693   1.408       .  A
C693        C694   1.392       .  A
C693        F700   1.358       .  S
C694        C695   1.404       .  A
C694        H699   1.083       .  S
C695        C696   1.408       .  A
C696        F697   1.357       .  S
C701        C702   1.402   1_554  A
C701        C706   1.391       .  A
C701        H708   1.083       .  S
C702       C1503   1.414       .  A
C703        C704   1.405       .  A
C703       C1502   1.414       .  A
C703        F710   1.357       .  S
C704       C1505   1.401       .  A
C704        H709   1.083       .  S
C705        C706   1.408   1_556  A
C705       C1504   1.401       .  A
C706        F707   1.358       .  S
C711        C712   1.405       .  A
C711        C716   1.395   1_556  A
C711        H718   1.084   1_556  S
C712        C713   1.407       .  A
C713        C714   1.407       .  A
C713        F720   1.357       .  S
C714        C715   1.406   1_556  A
C714       H1519   1.083       .  S
C715        C716   1.403       .  A
C716        F717   1.358       .  S
H719       C1514   1.083       .  S
C721        C722   1.394       .  A
C721        C726   1.393       .  A
C721        H728   1.084       .  S
C722        C723   1.399       .  A
C723        C724   1.392       .  A
C723        F730   1.358       .  S
C724        C725   1.408       .  A
C724        H729   1.078       .  S
C725        C726   1.416       .  A
C726        F727   1.358       .  S
C731        C732   1.407       .  A
C731        C736   1.398       .  A
C731        H738   1.083       .  S
C732        C733   1.413       .  A
C733        C734   1.404       .  A
C733        F740   1.357       .  S
C734        C735   1.402       .  A
C734        H739   1.083       .  S
C735        C736   1.404       .  A
C736        F737   1.358       .  S
C741        C742   1.407       .  A
C741        C746   1.402       .  A
C741        H748   1.083       .  S
C742        C743   1.411       .  A
C743        C744   1.402       .  A
C743        F750   1.357       .  S
C744        C745   1.407       .  A
C744        H749   1.083       .  S
C745        C746   1.411       .  A
C746        F747   1.357       .  S
C751        C752   1.405       .  A
C751        C756   1.395       .  A
C751        H758   1.083       .  S
C752        C753   1.408       .  A
C753        C754   1.392       .  A
C753        F760   1.357       .  S
C754        C755   1.404       .  A
C754        H759   1.083       .  S
C755        C756   1.408       .  A
C756        F757   1.358       .  S
C761        C766   1.405       .  A
C761       C1562   1.404       .  A
C761        H768   1.083       .  S
C762        C763   1.399       .  A
C762       C1561   1.405   1_554  A
C763        C764   1.394       .  A
C763        F770   1.358       .  S
C764        C765   1.409       .  A
C764        H769   1.083       .  S
C765       C1566   1.409   1_554  A
C766       C1565   1.410       .  A
C766        F767   1.357       .  S
C771        C772   1.402       .  A
C771        C776   1.399       .  A
C771        H778   1.084       .  S
C772        C773   1.397   1_554  A
C773        C774   1.394       .  A
C773        F780   1.358       .  S
C774        C775   1.412   1_556  A
C774       H1579   1.082       .  S
C775        C776   1.409       .  A
C776        F777   1.356       .  S
H779       C1574   1.083       .  S
C781        C782   1.412       .  A
C781        C786   1.393       .  A
C781        H788   1.075       .  S
C782        C783   1.412       .  A
C783        C784   1.395       .  A
C783        F790   1.358       .  S
C784        C785   1.402       .  A
C784        H789   1.083       .  S
C785        C786   1.403       .  A
C786        F787   1.358       .  S
C791        C792   1.410       .  A
C791        C796   1.402       .  A
C791        H798   1.083       .  S
C792        C793   1.413       .  A
C793        C794   1.403       .  A
C793        F800   1.357       .  S
C794        C795   1.401       .  A
C794        H799   1.083       .  S
C795        C796   1.403       .  A
C796        F797   1.358       .  S
C801        C802   1.530       .  S
C801        C807   1.534       .  S
C801        C805   1.539       .  S
C801       C1582   1.525       .  S
C802        H809   1.087       .  S
C803        C804   1.545       .  S
C803       C1562   1.474       .  S
C804        C808   1.545       .  S
C804        C806   1.545       .  S
C804        H810   1.109       .  S
C805        H811   1.077       .  S
C806       C1575   1.491       .  S
C808       C1595   1.486       .  S
O813       Cu821   2.002       .  S
O813        C823   1.278       .  A
O814       Cu821   2.007       .  S
O814        C824   1.278       .  A
O815       Cu821   2.021       .  S
O815        C825   1.279       .  A
O816       Cu821   2.016       .  S
O816        C826   1.279       .  A
O817       Cu822   2.029       .  S
O817        C826   1.281       .  A
O818       Cu822   2.027       .  S
O818        C825   1.280       .  A
O819       Cu822   1.979       .  S
O819        C824   1.275       .  A
O820       Cu822   1.985       .  S
O820        C823   1.275       .  A
Cu821      Cu822   2.369       .  S
C823       C1552   1.475       .  S
C824       C1585   1.469       .  S
C825       C1592   1.490       .  S
C826       C1542   1.495       .  S
C827        C828   1.526       .  S
C827        C833   1.535       .  S
C827        C831   1.528       .  S
C827       C1525   1.519       .  S
C828        H835   1.087       .  S
C828        C829   1.365       .  D
C829       C1512   1.488       .  S
C830        C834   1.551       .  S
C830        H836   1.110       .  S
C831        H837   1.087       .  S
C831        C832   1.362       .  D
C832       C1505   1.479       .  S
C833        H838   1.082       .  S
C834       C1535   1.480       .  S
O839       Cu847   1.987       .  S
O839        C849   1.275       .  A
O840       Cu847   1.984       .  S
O840        C850   1.274       .  A
O841       Cu847   2.019       .  S
O841        C851   1.280       .  A
O842       Cu847   2.017       .  S
O842        C852   1.279       .  A
O843       Cu848   2.021       .  S
O843        C852   1.280       .  A
O844       Cu848   2.018       .  S
O844        C851   1.279       .  A
O845       Cu848   1.995       .  S
O845        C850   1.275       .  A
O846       Cu848   1.999       .  S
O846        C849   1.278       .  A
Cu847      Cu848   2.371       .  S
C849       C1492   1.475       .  S
C850       C1522   1.451       .  S
C851       C1532   1.492       .  S
C852       C1482   1.492       .  S
O853       Cu861   2.022       .  S
O853        C863   1.280       .  A
O854        C864   1.280       .  A
O855        C865   1.277       .  A
O856       Cu861   1.991       .  S
O856        C866   1.276       .  A
O857       Cu862   1.996       .  S
O857        C866   1.277       .  A
O858        C865   1.276       .  A
O859        C864   1.279       .  A
O860       Cu862   2.017       .  S
O860        C863   1.279       .  A
Cu861      Cu862   2.368       .  S
C863       C1485   1.492       .  S
C864       C1545   1.494       .  S
C865       C1495   1.476       .  S
C866       C1555   1.475       .  S
C867        C868   1.528       .  S
C867        C873   1.536       .  S
C867        C871   1.527       .  S
C867       C1462   1.524       .  S
C868        H875   1.086       .  S
C868        C869   1.367       .  D
C869       C1565   1.493       .  S
C870        C874   1.549       .  S
C870        H876   1.110       .  S
C871        H877   1.087       .  S
C871        C872   1.363       .  D
C872       C1452   1.486       .  S
C873        H878   1.082       .  S
C874       C1475   1.482       .  S
O879       Cu887   2.001       .  S
O879        C889   1.277       .  A
O880       Cu887   1.999       .  S
O880        C890   1.275       .  A
O881       Cu887   2.028       .  S
O881        C891   1.281       .  A
O882       Cu887   2.023       .  S
O882        C892   1.280       .  A
O883       Cu888   2.021       .  S
O883        C892   1.280       .  A
O884       Cu888   2.021       .  S
O884        C891   1.280       .  A
O885       Cu888   1.998       .  S
O885        C890   1.275       .  A
O886       Cu888   2.004       .  S
O886        C889   1.278       .  A
Cu887      Cu888   2.370       .  S
C889       C1442   1.482       .  S
C890       C1465   1.457       .  S
C891       C1472   1.496       .  S
C892       C1432   1.495       .  S
C893        C894   1.528       .  S
C893        C899   1.533   1_556  S
C893        C897   1.538       .  S
C893       C1412   1.526       .  S
C894        H901   1.087       .  S
C895        C896   1.546       .  S
C895       C1405   1.475       .  S
C896        C900   1.548       .  S
C896        C898   1.547       .  S
C896        H902   1.110       .  S
C897        H903   1.078       .  S
C898       C1395   1.490       .  S
C900       C1422   1.487       .  S
O905       Cu913   2.026       .  S
O905        C915   1.279       .  A
O906       Cu913   2.027       .  S
O906        C916   1.281       .  A
O907       Cu913   1.992       .  S
O907        C917   1.276       .  A
O908       Cu913   1.985       .  S
O908        C918   1.275       .  A
O909       Cu914   2.006       .  S
O909        C918   1.277       .  A
O910       Cu914   2.000       .  S
O910        C917   1.277       .  A
O911       Cu914   2.028       .  S
O911        C916   1.280       .  A
O912       Cu914   2.031       .  S
O912        C915   1.281       .  A
Cu913      Cu914   2.369       .  S
C915       C1425   1.494       .  S
C916       C1372   1.496       .  S
C917       C1382   1.476       .  S
C918       C1415   1.470       .  S
O919       Cu927   1.986       .  S
O919        C929   1.276       .  A
O920        C930   1.277       .  A
O921        C931   1.280       .  A
O922       Cu927   2.018       .  S
O922        C932   1.280       .  A
O923       Cu928   2.029       .  S
O923        C932   1.280       .  A
O924        C931   1.280       .  A
O925        C930   1.278       .  A
O926       Cu928   2.005       .  S
O926        C929   1.277       .  A
Cu927      Cu928   2.367       .  S
C929       C1385   1.476       .  S
C930       C1445   1.482       .  S
C931       C1375   1.496       .  S
C932       C1435   1.495       .  S
C933        C934   1.533       .  S
C933        C939   1.528   1_556  S
C933        C937   1.535       .  S
C933       C1352   1.523       .  S
C934        H941   1.087       .  S
C935        C936   1.541       .  S
C935       C1515   1.474       .  S
C936        C940   1.547       .  S
C936        C938   1.539       .  S
C936        H942   1.111       .  S
C937        H943   1.083       .  S
C938       C1345   1.478       .  S
C940       C1362   1.477       .  S
O945       Cu953   2.001       .  S
O945        C955   1.277       .  A
O946       Cu953   2.006       .  S
O946        C956   1.278       .  A
O947       Cu953   2.011       .  S
O947        C957   1.278       .  A
O948       Cu953   2.017       .  S
O948        C958   1.279       .  A
O949       Cu954   2.018       .  S
O949        C958   1.280       .  A
O950       Cu954   2.017       .  S
O950        C957   1.279       .  A
O951       Cu954   1.985       .  S
O951        C956   1.275       .  A
O952       Cu954   1.983       .  S
O952        C955   1.275       .  A
Cu953      Cu954   2.369       .  S
C955       C1355   1.468       .  S
C956       C1335   1.476       .  S
C957       C1325   1.488       .  S
C958       C1365   1.492       .  S
C959        C960   1.527       .  S
C959        C965   1.534       .  S
C959        C963   1.539       .  S
C959       C1305   1.525       .  S
C960        H967   1.087       .  S
C960        C961   1.360       .  D
C961       C1292   1.474       .  S
C962        C966   1.544       .  S
C962        H968   1.109       .  S
C963        H969   1.077       .  S
C963        C964   1.366       .  D
C964       C1282   1.495       .  S
C965        H970   1.087       .  S
C966       C1312   1.483       .  S
O971       Cu979   2.009       .  S
O971        C981   1.279       .  A
O972       Cu979   2.011       .  S
O972        C982   1.278       .  A
O973       Cu979   2.033       .  S
O973        C983   1.281       .  A
O974       Cu979   2.028       .  S
O974        C984   1.280       .  A
O975       Cu980   2.020       .  S
O975        C984   1.280       .  A
O976       Cu980   2.019       .  S
O976        C983   1.279       .  A
O977       Cu980   1.977       .  S
O977        C982   1.275       .  A
O978       Cu980   1.981       .  S
O978        C981   1.274       .  A
Cu979      Cu980   2.368       .  S
C981       C1272   1.476       .  S
C982       C1302   1.469       .  S
C983       C1315   1.496       .  S
C984       C1265   1.496       .  S
O985       Cu993   2.030       .  S
O985        C995   1.281       .  A
O986        C996   1.280       .  A
O987        C997   1.276       .  A
O988       Cu993   2.002       .  S
O988        C998   1.277       .  A
O989       Cu994   1.991       .  S
O989        C998   1.277       .  A
O990        C997   1.278       .  A
O991        C996   1.278       .  A
O992       Cu994   2.017       .  S
O992        C995   1.279       .  A
Cu993      Cu994   2.368       .  S
C995       C1262   1.496       .  S
C996       C1322   1.488       .  S
C997       C1275   1.476       .  S
C998       C1332   1.476       .  S
C999       C1000   1.534       .  S
C999       C1005   1.527       .  S
C999       C1003   1.532       .  S
C999       C1242   1.522       .  S
C1000      H1007   1.083       .  S
C1000      C1001   1.366       .  D
C1001      C1402   1.488       .  S
C1002      C1006   1.553       .  S
C1002      H1008   1.110       .  S
C1003      H1009   1.086       .  S
C1003      C1004   1.362       .  D
C1004      C1232   1.477       .  S
C1005      H1010   1.087       .  S
C1006      C1252   1.485       .  S
O1011     Cu1019   1.998       .  S
O1011      C1021   1.277       .  A
O1012     Cu1019   1.995       .  S
O1012      C1022   1.277       .  A
O1013     Cu1019   2.030       .  S
O1013      C1023   1.281       .  A
O1014     Cu1019   2.030       .  S
O1014      C1024   1.281       .  A
O1015     Cu1020   2.024       .  S
O1015      C1024   1.280       .  A
O1016     Cu1020   2.028       .  S
O1016      C1023   1.280       .  A
O1017     Cu1020   1.986       .  S
O1017      C1022   1.275       .  A
O1018     Cu1020   1.990       .  S
O1018      C1021   1.276       .  A
Cu1019    Cu1020   2.367       .  S
C1021      C1222   1.475       .  S
C1022      C1245   1.472       .  S
C1023      C1255   1.498       .  S
C1024      C1215   1.497       .  S
C1025      C1026   1.533       .  S
C1025      C1031   1.531   1_556  S
C1025      C1029   1.535       .  S
C1025      C1192   1.527       .  S
C1026      H1033   1.086       .  S
C1027      C1028   1.551       .  S
C1027      C1295   1.490       .  S
C1028      C1032   1.551       .  S
C1028      C1030   1.543       .  S
C1028      H1034   1.110       .  S
C1029      H1035   1.082       .  S
C1030      C1185   1.478       .  S
C1032      C1202   1.485       .  S
O1037     Cu1045   2.002       .  S
O1037      C1047   1.277       .  A
O1038     Cu1045   2.005       .  S
O1038      C1048   1.278       .  A
O1039     Cu1045   2.028       .  S
O1039      C1049   1.280       .  A
O1040     Cu1045   2.025       .  S
O1040      C1050   1.280       .  A
O1041     Cu1046   2.029       .  S
O1041      C1050   1.281       .  A
O1042     Cu1046   2.026       .  S
O1042      C1049   1.281       .  A
O1043     Cu1046   1.993       .  S
O1043      C1048   1.276       .  A
O1044     Cu1046   1.992       .  S
O1044      C1047   1.276       .  A
Cu1045    Cu1046   2.367       .  S
C1047      C1172   1.476       .  S
C1048      C1195   1.476       .  S
C1049      C1205   1.497       .  S
C1050      C1162   1.497       .  S
O1051     Cu1059   2.029       .  S
O1051      C1061   1.280       .  A
O1052      C1062   1.281       .  A
O1053      C1063   1.276       .  A
O1054     Cu1059   1.998       .  S
O1054      C1064   1.277       .  A
O1055     Cu1060   1.998       .  S
O1055      C1064   1.277       .  A
O1056      C1063   1.276       .  A
O1057      C1062   1.279       .  A
O1058     Cu1060   2.024       .  S
O1058      C1061   1.280       .  A
Cu1059    Cu1060   2.367       .  S
C1061      C1212   1.497       .  S
C1062      C1165   1.497       .  S
C1063      C1225   1.474       .  S
C1064      C1175   1.476       .  S
O1065     Cu1073   1.985       .  S
O1066     Cu1073   1.988   1_545  S
O1067     Cu1073   2.027       .  S
O1068     Cu1073   2.021   1_545  S
O1069     Cu1074   1.991       .  S
O1069      C1078   1.276       .  A
O1070     Cu1074   1.992   1_565  S
O1070      C1077   1.273       .  A
O1071     Cu1074   2.030       .  S
O1071      C1076   1.281       .  A
O1072     Cu1074   2.021   1_565  S
O1072      C1075   1.281       .  A
C1075      C1155   1.484       .  S
C1076      C1285   1.469       .  S
C1077      C1392   1.466       .  S
C1078      C1142   1.482       .  S
O1079     Cu1087   2.002   1_655  S
O1080     Cu1087   1.992       .  S
O1081     Cu1087   2.012   1_655  S
O1082     Cu1087   2.013       .  S
O1083     Cu1088   1.994       .  S
O1083      C1092   1.275       .  A
O1084     Cu1088   1.984   1_655  S
O1084      C1091   1.275       .  A
O1085     Cu1088   2.010       .  S
O1085      C1090   1.279       .  A
O1086     Cu1088   2.011   1_655  S
O1086      C1089   1.281       .  A
C1089      C1502   1.483       .  S
C1090      C1145   1.480       .  S
C1091      C1135   1.479       .  S
C1092      C1182   1.481       .  S
O1093     Cu1101   1.999   1_655  S
O1093      C1103   1.274       .  A
O1094     Cu1101   1.994       .  S
O1094      C1104   1.276       .  A
O1095     Cu1101   1.999   1_655  S
O1095      C1105   1.278       .  A
O1096     Cu1101   2.010       .  S
O1096      C1106   1.280       .  A
O1097     Cu1102   1.999       .  S
O1098     Cu1102   1.996   1_655  S
O1099     Cu1102   2.002       .  S
O1100     Cu1102   2.006   1_655  S
C1103      C1572   1.465       .  S
C1104      C1152   1.484       .  S
C1105      C1125   1.474       .  S
C1106      C1235   1.478       .  S
O1107     Cu1115   1.985       .  S
O1107      C1117   1.274       .  A
O1108     Cu1115   1.995   1_545  S
O1108      C1118   1.275       .  A
O1109     Cu1115   2.022       .  S
O1109      C1119   1.282       .  A
O1110     Cu1115   2.019   1_545  S
O1110      C1120   1.280       .  A
O1111     Cu1116   1.985   1_545  S
O1112     Cu1116   1.996       .  S
O1113     Cu1116   2.003   1_545  S
O1114     Cu1116   2.005       .  S
C1117      C1122   1.474       .  S
C1118      C1342   1.479       .  S
C1119      C1455   1.485       .  S
C1120      C1132   1.480       .  S
C1121      C1126   1.394       .  A
C1121      H1128   1.083       .  S
C1122      C1123   1.409       .  A
C1123      C1124   1.393       .  A
C1123      F1130   1.358       .  S
C1124      C1125   1.403       .  A
C1124      H1129   1.083       .  S
C1126      F1127   1.357       .  S
C1131      C1136   1.394       .  A
C1131      H1138   1.083       .  S
C1132      C1133   1.406       .  A
C1133      C1134   1.396       .  A
C1133      F1140   1.357       .  S
C1134      C1135   1.408       .  A
C1134      H1139   1.083       .  S
C1136      F1137   1.357       .  S
C1141      C1142   1.407       .  A
C1141      C1146   1.395       .  A
C1141      H1148   1.083       .  S
C1143      C1144   1.399       .  A
C1143      F1150   1.357       .  S
C1144      H1149   1.083       .  S
C1145      C1146   1.406       .  A
C1146      F1147   1.357       .  S
C1151      C1152   1.404       .  A
C1151      C1156   1.398       .  A
C1152      C1153   1.411       .  A
C1153      C1154   1.397       .  A
C1153      F1160   1.357       .  S
C1154      C1155   1.403       .  A
C1154      H1159   1.083       .  S
C1155      C1156   1.412       .  A
C1161      C1162   1.407       .  A
C1161      C1166   1.403       .  A
C1161      H1168   1.083       .  S
C1162      C1163   1.412       .  A
C1163      C1164   1.405       .  A
C1163      F1170   1.357       .  S
C1164      C1165   1.408       .  A
C1164      H1169   1.083       .  S
C1165      C1166   1.412       .  A
C1166      F1167   1.357       .  S
C1171      C1172   1.405       .  A
C1171      C1176   1.395       .  A
C1171      H1178   1.083       .  S
C1172      C1173   1.407       .  A
C1173      C1174   1.394       .  A
C1173      F1180   1.357       .  S
C1174      C1175   1.405       .  A
C1174      H1179   1.083       .  S
C1175      C1176   1.408       .  A
C1176      F1177   1.358       .  S
C1181      C1182   1.411       .  A
C1181      C1186   1.403       .  A
C1181      H1188   1.083       .  S
C1183      C1184   1.392       .  A
C1183      F1190   1.358       .  S
C1184      H1189   1.084       .  S
C1185      C1186   1.401       .  A
C1186      F1187   1.357       .  S
C1191      C1192   1.410       .  A
C1191      C1196   1.392       .  A
C1191      H1198   1.077       .  S
C1192      C1193   1.412       .  A
C1193      C1194   1.397       .  A
C1193      F1200   1.358       .  S
C1194      C1195   1.403       .  A
C1194      H1199   1.083       .  S
C1195      C1196   1.405       .  A
C1196      F1197   1.358       .  S
C1201      C1202   1.402       .  A
C1201      C1206   1.406       .  A
C1201      H1208   1.083       .  S
C1202      C1203   1.404       .  A
C1203      C1204   1.402       .  A
C1203      F1210   1.358       .  S
C1204      C1205   1.409       .  A
C1204      H1209   1.083       .  S
C1205      C1206   1.414       .  A
C1206      F1207   1.357       .  S
C1211      C1212   1.407       .  A
C1211      C1216   1.402       .  A
C1211      H1218   1.083       .  S
C1212      C1213   1.411       .  A
C1213      C1214   1.405       .  A
C1213      F1220   1.357       .  S
C1214      C1215   1.408       .  A
C1214      H1219   1.083       .  S
C1215      C1216   1.411       .  A
C1216      F1217   1.357       .  S
C1221      C1222   1.406       .  A
C1221      C1226   1.396       .  A
C1221      H1228   1.083       .  S
C1222      C1223   1.407       .  A
C1223      C1224   1.390       .  A
C1223      F1230   1.357       .  S
C1224      C1225   1.403       .  A
C1224      H1229   1.083       .  S
C1225      C1226   1.408       .  A
C1226      F1227   1.358       .  S
C1231      C1232   1.400       .  A
C1231      C1236   1.401       .  A
C1231      H1238   1.082       .  S
C1232      C1233   1.407       .  A
C1233      C1234   1.391       .  A
C1234      C1235   1.402       .  A
C1235      C1236   1.412       .  A
C1236      F1237   1.357       .  S
C1241      C1242   1.408       .  A
C1241      C1246   1.391       .  A
C1241      H1248   1.083       .  S
C1242      C1243   1.414       .  A
C1243      C1244   1.393       .  A
C1243      F1250   1.356       .  S
C1244      C1245   1.402       .  A
C1244      H1249   1.083       .  S
C1245      C1246   1.405       .  A
C1246      F1247   1.358       .  S
C1251      C1252   1.403       .  A
C1251      C1256   1.403       .  A
C1251      H1258   1.084       .  S
C1252      C1253   1.404       .  A
C1253      C1254   1.405       .  A
C1253      F1260   1.357       .  S
C1254      C1255   1.411       .  A
C1254      H1259   1.083       .  S
C1255      C1256   1.412       .  A
C1256      F1257   1.357       .  S
C1261      C1262   1.408       .  A
C1261      C1266   1.404       .  A
C1261      H1268   1.083       .  S
C1262      C1263   1.411       .  A
C1263      C1264   1.401       .  A
C1263      F1270   1.357       .  S
C1264      C1265   1.407       .  A
C1264      H1269   1.083       .  S
C1265      C1266   1.411       .  A
C1266      F1267   1.357       .  S
C1271      C1272   1.404       .  A
C1271      C1276   1.396       .  A
C1271      H1278   1.083       .  S
C1272      C1273   1.409       .  A
C1273      C1274   1.391       .  A
C1273      F1280   1.358       .  S
C1274      C1275   1.403       .  A
C1274      H1279   1.083       .  S
C1275      C1276   1.409       .  A
C1276      F1277   1.357       .  S
C1281      C1282   1.413       .  A
C1281      C1286   1.398       .  A
C1281      H1288   1.083       .  S
C1282      C1283   1.408       .  A
C1283      C1284   1.400       .  A
C1284      C1285   1.403       .  A
C1285      C1286   1.399       .  A
C1286      F1287   1.358       .  S
C1291      C1292   1.398       .  A
C1292      C1293   1.405       .  A
C1293      C1294   1.404       .  A
C1293      F1300   1.357       .  S
C1294      C1295   1.406       .  A
C1294      H1299   1.083       .  S
C1296      F1297   1.357       .  S
C1301      C1302   1.401       .  A
C1301      C1306   1.398       .  A
C1301      H1308   1.083       .  S
C1302      C1303   1.402       .  A
C1303      C1304   1.389       .  A
C1303      F1310   1.358       .  S
C1304      C1305   1.410       .  A
C1304      H1309   1.074       .  S
C1305      C1306   1.414       .  A
C1306      F1307   1.358       .  S
C1311      C1312   1.402       .  A
C1311      C1316   1.403       .  A
C1311      H1318   1.083       .  S
C1312      C1313   1.403       .  A
C1313      C1314   1.404       .  A
C1313      F1320   1.358       .  S
C1314      C1315   1.410       .  A
C1314      H1319   1.083       .  S
C1315      C1316   1.412       .  A
C1316      F1317   1.357       .  S
C1321      C1322   1.407       .  A
C1321      C1326   1.399       .  A
C1321      H1328   1.083       .  S
C1322      C1323   1.409       .  A
C1323      C1324   1.401       .  A
C1323      F1330   1.357       .  S
C1324      C1325   1.407       .  A
C1324      H1329   1.083       .  S
C1325      C1326   1.409       .  A
C1326      F1327   1.357       .  S
C1331      C1332   1.403       .  A
C1331      C1336   1.392       .  A
C1331      H1338   1.083       .  S
C1332      C1333   1.408       .  A
C1333      C1334   1.396       .  A
C1333      F1340   1.357       .  S
C1334      C1335   1.405       .  A
C1334      H1339   1.083       .  S
C1335      C1336   1.409       .  A
C1336      F1337   1.358       .  S
C1341      C1346   1.389       .  A
C1341      H1348   1.083       .  S
C1342      C1343   1.413       .  A
C1343      C1344   1.402       .  A
C1343      F1350   1.357       .  S
C1344      C1345   1.401       .  A
C1344      H1349   1.083       .  S
C1346      F1347   1.358       .  S
C1351      C1352   1.411       .  A
C1351      C1356   1.390       .  A
C1351      H1358   1.080       .  S
C1352      C1353   1.412       .  A
C1353      C1354   1.394       .  A
C1353      F1360   1.358       .  S
C1354      C1355   1.401       .  A
C1354      H1359   1.084       .  S
C1355      C1356   1.403       .  A
C1356      F1357   1.358       .  S
C1361      C1362   1.400       .  A
C1361      C1366   1.402       .  A
C1361      H1368   1.083       .  S
C1362      C1363   1.403       .  A
C1363      C1364   1.401       .  A
C1363      F1370   1.358       .  S
C1364      C1365   1.409       .  A
C1364      H1369   1.083       .  S
C1365      C1366   1.413       .  A
C1366      F1367   1.357       .  S
C1371      C1372   1.407       .  A
C1371      C1376   1.403       .  A
C1371      H1378   1.083       .  S
C1372      C1373   1.411       .  A
C1373      C1374   1.405       .  A
C1373      F1380   1.357       .  S
C1374      C1375   1.408       .  A
C1374      H1379   1.083       .  S
C1375      C1376   1.411       .  A
C1376      F1377   1.357       .  S
C1381      C1382   1.406       .  A
C1381      C1386   1.397       .  A
C1381      H1388   1.083       .  S
C1382      C1383   1.407       .  A
C1383      C1384   1.392       .  A
C1383      F1390   1.358       .  S
C1384      C1385   1.405       .  A
C1384      H1389   1.083       .  S
C1385      C1386   1.408       .  A
C1386      F1387   1.357       .  S
C1391      C1396   1.402       .  A
C1391      H1398   1.084       .  S
C1392      C1393   1.398       .  A
C1393      C1394   1.395       .  A
C1393      F1400   1.358       .  S
C1394      C1395   1.410       .  A
C1394      H1399   1.083       .  S
C1396      F1397   1.355       .  S
C1401      C1402   1.407       .  A
C1401      C1406   1.393       .  A
C1401      H1408   1.083       .  S
C1403      C1404   1.405       .  A
C1403      F1410   1.357       .  S
C1404      H1409   1.083       .  S
C1405      C1406   1.399       .  A
C1406      F1407   1.357       .  S
C1411      C1412   1.411       .  A
C1411      C1416   1.391       .  A
C1411      H1418   1.074       .  S
C1412      C1413   1.413       .  A
C1413      C1414   1.396       .  A
C1413      F1420   1.358       .  S
C1414      C1415   1.401       .  A
C1414      H1419   1.083       .  S
C1415      C1416   1.402       .  A
C1416      F1417   1.358       .  S
C1421      C1422   1.403       .  A
C1421      C1426   1.407       .  A
C1421      H1428   1.083       .  S
C1422      C1423   1.405       .  A
C1423      C1424   1.401       .  A
C1423      F1430   1.357       .  S
C1424      C1425   1.407       .  A
C1424      H1429   1.083       .  S
C1425      C1426   1.413       .  A
C1426      F1427   1.357       .  S
C1431      C1432   1.409       .  A
C1431      C1436   1.405       .  A
C1431      H1438   1.083       .  S
C1432      C1433   1.410       .  A
C1433      C1434   1.400       .  A
C1433      F1440   1.357       .  S
C1434      C1435   1.407       .  A
C1434      H1439   1.083       .  S
C1435      C1436   1.411       .  A
C1436      F1437   1.357       .  S
C1441      C1442   1.406       .  A
C1441      C1446   1.398       .  A
C1441      H1448   1.083       .  S
C1442      C1443   1.408       .  A
C1443      C1444   1.395       .  A
C1443      F1450   1.357       .  S
C1444      C1445   1.405       .  A
C1444      H1449   1.083       .  S
C1445      C1446   1.410       .  A
C1446      F1447   1.358       .  S
C1451      C1456   1.403       .  A
C1451      H1458   1.083       .  S
C1452      C1453   1.410       .  A
C1453      C1454   1.394       .  A
C1453      F1460   1.358       .  S
C1454      C1455   1.402       .  A
C1454      H1459   1.083       .  S
C1456      F1457   1.357       .  S
C1461      C1462   1.410       .  A
C1461      C1466   1.395       .  A
C1461      H1468   1.076       .  S
C1462      C1463   1.416       .  A
C1463      C1464   1.394       .  A
C1463      F1470   1.358       .  S
C1464      C1465   1.395       .  A
C1464      H1469   1.084       .  S
C1465      C1466   1.399       .  A
C1466      F1467   1.358       .  S
C1471      C1472   1.410       .  A
C1471      C1476   1.403       .  A
C1471      H1478   1.083       .  S
C1472      C1473   1.412       .  A
C1473      C1474   1.402       .  A
C1473      F1480   1.357       .  S
C1474      C1475   1.403       .  A
C1474      H1479   1.084       .  S
C1475      C1476   1.403       .  A
C1476      F1477   1.357       .  S
C1481      C1482   1.406       .  A
C1481      C1486   1.400       .  A
C1481      H1488   1.083       .  S
C1482      C1483   1.411       .  A
C1483      C1484   1.402       .  A
C1483      F1490   1.357       .  S
C1484      C1485   1.407       .  A
C1484      H1489   1.083       .  S
C1485      C1486   1.410       .  A
C1486      F1487   1.357       .  S
C1491      C1492   1.404       .  A
C1491      C1496   1.394       .  A
C1491      H1498   1.083       .  S
C1492      C1493   1.408       .  A
C1493      C1494   1.393       .  A
C1493      F1500   1.358       .  S
C1494      C1495   1.404       .  A
C1494      H1499   1.083       .  S
C1495      C1496   1.408       .  A
C1496      F1497   1.357       .  S
C1501      C1502   1.403       .  A
C1501      C1506   1.391       .  A
C1501      H1508   1.083       .  S
C1503      C1504   1.405       .  A
C1503      F1510   1.357       .  S
C1504      H1509   1.083       .  S
C1505      C1506   1.406       .  A
C1506      F1507   1.358       .  S
C1511      C1512   1.408       .  A
C1511      C1516   1.395       .  A
C1511      H1518   1.083       .  S
C1512      C1513   1.408       .  A
C1513      C1514   1.405       .  A
C1513      F1520   1.357       .  S
C1514      C1515   1.404       .  A
C1515      C1516   1.400       .  A
C1516      F1517   1.358       .  S
C1521      C1522   1.395       .  A
C1521      C1526   1.394       .  A
C1521      H1528   1.084       .  S
C1522      C1523   1.397       .  A
C1523      C1524   1.390       .  A
C1523      F1530   1.358       .  S
C1524      C1525   1.409       .  A
C1524      H1529   1.077       .  S
C1525      C1526   1.416       .  A
C1526      F1527   1.358       .  S
C1531      C1532   1.407       .  A
C1531      C1536   1.399       .  A
C1531      H1538   1.083       .  S
C1532      C1533   1.413       .  A
C1533      C1534   1.404       .  A
C1533      F1540   1.357       .  S
C1534      C1535   1.402       .  A
C1534      H1539   1.083       .  S
C1535      C1536   1.404       .  A
C1536      F1537   1.358       .  S
C1541      C1542   1.407       .  A
C1541      C1546   1.403       .  A
C1541      H1548   1.083       .  S
C1542      C1543   1.411       .  A
C1543      C1544   1.401       .  A
C1543      F1550   1.357       .  S
C1544      C1545   1.407       .  A
C1544      H1549   1.083       .  S
C1545      C1546   1.411       .  A
C1546      F1547   1.357       .  S
C1551      C1552   1.404       .  A
C1551      C1556   1.394       .  A
C1551      H1558   1.083       .  S
C1552      C1553   1.409       .  A
C1553      C1554   1.393       .  A
C1553      F1560   1.358       .  S
C1554      C1555   1.404       .  A
C1554      H1559   1.083       .  S
C1555      C1556   1.409       .  A
C1556      F1557   1.357       .  S
C1561      C1566   1.406       .  A
C1561      H1568   1.083       .  S
C1562      C1563   1.398       .  A
C1563      C1564   1.394       .  A
C1563      F1570   1.358       .  S
C1564      C1565   1.410       .  A
C1564      H1569   1.083       .  S
C1566      F1567   1.357       .  S
C1571      C1572   1.403       .  A
C1571      C1576   1.401       .  A
C1571      H1578   1.084       .  S
C1572      C1573   1.397       .  A
C1573      C1574   1.395       .  A
C1573      F1580   1.358       .  S
C1574      C1575   1.411       .  A
C1575      C1576   1.409       .  A
C1576      F1577   1.356       .  S
C1581      C1582   1.410       .  A
C1581      C1586   1.390       .  A
C1581      H1588   1.074       .  S
C1582      C1583   1.413       .  A
C1583      C1584   1.396       .  A
C1583      F1590   1.358       .  S
C1584      C1585   1.400       .  A
C1584      H1589   1.083       .  S
C1585      C1586   1.403       .  A
C1586      F1587   1.358       .  S
C1591      C1592   1.408       .  A
C1591      C1596   1.405       .  A
C1591      H1598   1.083       .  S
C1592      C1593   1.410       .  A
C1593      C1594   1.401       .  A
C1593      F1600   1.357       .  S
C1594      C1595   1.404       .  A
C1594      H1599   1.084       .  S
C1595      C1596   1.405       .  A
C1596      F1597   1.357       .  S
