geometry optimzed in LAMMPS
_audit_creation_date              2020-11-30 
_audit_creation_method            'lammps2cif' 
_symmetry_space_group_name_H-M    'P1' 
_symmetry_Int_Tables_number       1 
_symmetry_cell_setting            triclinic 
loop_ 
_symmetry_equiv_pos_as_xyz 
  x,y,z 
_cell_length_a                    31.36277828 
_cell_length_b                    32.16921256102992 
_cell_length_c                    26.582117574132955 
_cell_angle_alpha                 90.49380061156099 
_cell_angle_beta                  90.38450309148409 
_cell_angle_gamma                 122.54616695701732 
loop_ 
_atom_site_label 
_atom_site_type_symbol 
_atom_site_fract_x 
_atom_site_fract_y 
_atom_site_fract_z 
_atom_site_charge 
O1          O  0.22095021  0.67063053  0.18650078    -0.81700
O2          O  0.25733148  0.87915349  0.23255602    -0.66400
O3          O  0.19833927  0.74342837  0.20344551    -1.13000
C4          C  0.22738208  0.79294995  0.03331871     1.05200
O5          O  0.22412632  0.89637493  0.16889065    -0.79600
O6          O  0.15231171  0.81115272  0.11461817    -0.67200
Ni7        Ni  0.22195014  0.70947139  0.24260045     1.34900
C8          C  0.12771835  0.76415458  0.11037660     0.83900
O9          O  0.20719376  0.79958168  0.28765181    -0.80200
O10         O  0.22394226  0.74217059  0.30517018    -0.90400
C11         C  0.25181866  0.90953463  0.20843589     0.83500
O12         O  0.29201007  0.75553407  0.23106483    -0.68600
O13         O  0.22551864  0.82938409  0.04881951    -0.87900
C14         C  0.31635773  0.80200547  0.23624390     0.84300
C15         C  0.21231544  0.77294412  0.31882558     1.05900
H16         H  0.28093818  0.83763756  0.14613305     0.37700
O17         O  0.24476435  0.82142685  0.14946581    -1.10600
O18         O  0.14809484  0.73949323  0.11760646    -0.67200
Ni19       Ni  0.21456622  0.75308702  0.13332177     1.26300
O20         O  0.29473405  0.82604556  0.23659911    -0.67500
O21         O  0.23005090  0.76355647  0.06307551    -0.79800
C22         C  0.20173039  0.66023775  0.14239985     0.83700
O23         O  0.18674544  0.68499752  0.12047403    -0.66900
Ni24       Ni  0.22421111  0.85864878  0.11141587     1.27400
Ni25       Ni  0.22749104  0.81143175  0.21917226     1.26100
H26         H  0.16213039  0.72637214  0.20743653     0.38200
O27         O  0.19865336  0.65902242  0.67345552    -0.81700
O28         O  0.26689486  0.87220662  0.73212172    -0.66400
O29         O  0.18335763  0.73428417  0.70287209    -1.13000
C30         C  0.19986135  0.78894905  0.53576259     1.05200
O31         O  0.21250393  0.88180596  0.68889239    -0.79600
O32         O  0.13426757  0.80675126  0.63503528    -0.67200
Ni33       Ni  0.19403163  0.68780586  0.73532186     1.34900
C34         C  0.10741565  0.76064275  0.62663841     0.83900
O35         O  0.22354834  0.79283759  0.79120233    -0.80200
O36         O  0.19033104  0.71160541  0.80058246    -0.90400
C37         C  0.25118562  0.89934643  0.71783595     0.83500
O38         O  0.26610394  0.72718040  0.73963739    -0.68600
O39         O  0.19733184  0.82370524  0.55635027    -0.87900
C40         C  0.29949189  0.77195055  0.73079447     0.84300
C41         C  0.20775114  0.75485931  0.81828094     1.05900
H42         H  0.26288825  0.82560597  0.63785736     0.37700
O43         O  0.22848996  0.81110095  0.64903709    -1.10600
O44         O  0.12605641  0.73410383  0.62380007    -0.67200
Ni45       Ni  0.19178139  0.74333625  0.63145320     1.26300
O46         O  0.28870760  0.80344988  0.71790683    -0.67500
O47         O  0.20256625  0.75681868  0.56109919    -0.79800
C48         C  0.17404389  0.64903254  0.63224866     0.83700
O49         O  0.15744187  0.67463522  0.61616494    -0.66900
Ni50       Ni  0.20506453  0.85072196  0.62383004     1.27400
Ni51       Ni  0.22639160  0.80259686  0.71995255     1.26100
H52         H  0.14943420  0.72488144  0.71105656     0.38200
O53         O  0.48785248  0.81282556  0.34556083    -0.81700
O54         O  0.62661972  0.72917116  0.39283708    -0.66400
O55         O  0.57317665  0.80909133  0.36540094    -1.13000
C56         C  0.59232549  0.77151105  0.19618579     1.06400
O57         O  0.68952799  0.77452046  0.34165961    -0.79600
O58         O  0.69105997  0.84108113  0.27449060    -0.67200
Ni59       Ni  0.51348950  0.79376748  0.39994752     1.34900
C60         C  0.67491010  0.86990676  0.27340459     0.83900
O61         O  0.60590374  0.78317232  0.45101136    -0.80200
O62         O  0.53123562  0.77439209  0.46173062    -0.90400
C63         C  0.66969552  0.74237317  0.37601086     0.83500
O64         O  0.47902564  0.72944616  0.37183881    -0.68600
O65         O  0.62568949  0.76445172  0.21409728    -0.87900
C66         C  0.48733060  0.69696969  0.38551023     0.84300
C67         C  0.57102448  0.77797342  0.47909076     1.05900
H68         H  0.56865280  0.72227878  0.30399018     0.37700
O69         O  0.59429068  0.75649011  0.31085187    -1.10600
O70         O  0.62981213  0.85600677  0.28418836    -0.67200
Ni71       Ni  0.56691829  0.79493308  0.29387104     1.26300
O72         O  0.53248348  0.70736116  0.39251925    -0.67500
O73         O  0.56461294  0.78068819  0.22321553    -0.79800
C74         C  0.49938980  0.82938202  0.30131615     0.83700
O75         O  0.53545440  0.83097821  0.27792431    -0.66900
Ni76       Ni  0.65520933  0.77007831  0.27906750     1.27400
Ni77       Ni  0.59889879  0.76822593  0.38114673     1.26100
H78         H  0.59917194  0.84317968  0.37232382     0.38200
O79         O  0.47336396  0.77701950  0.83911219    -0.81700
O80         O  0.63406601  0.72903503  0.89296624    -0.66400
O81         O  0.57129463  0.79967490  0.86462663    -1.13000
C82         C  0.59453599  0.77214695  0.69450562     1.05200
O83         O  0.69358560  0.76702349  0.83563566    -0.79600
O84         O  0.69331742  0.83989972  0.78271309    -0.67200
Ni85       Ni  0.51156917  0.78509038  0.89932170     1.34900
C86         C  0.67539516  0.86708608  0.77938359     0.83900
O87         O  0.60099510  0.77238043  0.95233012    -0.80200
O88         O  0.54313979  0.79224986  0.96337999    -0.90400
C89         C  0.67482924  0.73839974  0.87305273     0.83500
O90         O  0.47935295  0.71507936  0.90179351    -0.68600
O91         O  0.63273156  0.77192694  0.71088498    -0.87900
C92         C  0.49469032  0.68602815  0.89586421     0.84300
C93         C  0.57474531  0.78249611  0.98037388     1.05900
H94         H  0.57552081  0.71898389  0.80168171     0.37700
O95         O  0.59947429  0.75346426  0.80937835    -1.10600
O96         O  0.62840946  0.85089705  0.78309394    -0.67200
Ni97       Ni  0.56680748  0.78745622  0.79354775     1.26300
O98         O  0.53992792  0.70020319  0.88575335    -0.67500
O99         O  0.56302181  0.77372492  0.72306828    -0.79800
C100        C  0.48677110  0.80140783  0.79871269     0.83700
O101        O  0.53047501  0.81885561  0.78065162    -0.66900
Ni102      Ni  0.66011217  0.76992545  0.77547584     1.27400
Ni103      Ni  0.60164949  0.76348882  0.88074593     1.26100
H104        H  0.59629222  0.83412265  0.87118414     0.38200
O105        O  0.22575504  0.51962043  0.98762213    -0.81700
O106        O  0.27915609  0.36973771  0.93337573    -0.66400
O107        O  0.20129270  0.42431048  0.96353195    -1.13000
C108        C  0.23045802  0.39857100  0.13133987     1.05200
O109        O  0.23060405  0.30668966  0.98293667    -0.79600
O110        O  0.15811837  0.30586376  0.04362058    -0.67200
Ni111      Ni  0.20984104  0.47908939  0.92830147     1.34900
C112        C  0.13192275  0.32502641  0.04938564     0.83900
O113        O  0.23378488  0.40252721  0.87448688    -0.80200
O114        O  0.19334218  0.44215944  0.86676141    -0.90400
C115        C  0.26538813  0.32755894  0.95020303     0.83500
O116        O  0.28079716  0.51133811  0.91468024    -0.68600
O117        O  0.23142426  0.36225238  0.11289443    -0.87900
C118        C  0.31455583  0.50237282  0.92596871     0.84300
C119        C  0.21221843  0.41918133  0.84789447     1.05900
H120        H  0.28467679  0.41993956  0.02585461     0.37700
O121        O  0.24944861  0.39747453  0.01700181    -1.10600
O122        O  0.15009543  0.37078728  0.04464677    -0.67200
Ni123      Ni  0.21512085  0.42912106  0.03398345     1.26300
O124        O  0.30433000  0.46184871  0.94473435    -0.67500
O125        O  0.22879784  0.43043122  0.10437568    -0.79800
C126        C  0.20218747  0.50757759  0.02899102     0.83700
O127        O  0.18389093  0.46508241  0.04736909    -0.66900
Ni128      Ni  0.23033292  0.33643312  0.04673315     1.27400
Ni129      Ni  0.24132725  0.39876405  0.94600959     1.26100
H130        H  0.16646855  0.39802560  0.95763879     0.38200
O131        O  0.19902984  0.50889826  0.48030037    -0.81700
O132        O  0.28557200  0.38064678  0.43747849    -0.66400
O133        O  0.19287800  0.42006598  0.46130021    -1.13000
C134        C  0.22978000  0.40703960  0.63155777     1.05200
O135        O  0.23746462  0.31685406  0.48650398    -0.79600
O136        O  0.16329426  0.30930503  0.55187262    -0.67200
Ni137      Ni  0.19106853  0.46822692  0.42258452     1.34900
C138        C  0.13262555  0.32382332  0.55451411     0.83900
O139        O  0.23336163  0.40266184  0.37466203    -0.80200
O140        O  0.18439515  0.43310834  0.36118129    -0.90400
C141        C  0.27243821  0.33828920  0.45390439     0.83500
O142        O  0.26131375  0.50890562  0.41141006    -0.68600
O143        O  0.23862747  0.37522618  0.61442065    -0.87900
C144        C  0.30039056  0.50915561  0.42387757     0.84300
C145        C  0.20966625  0.41511829  0.34561269     1.05900
H146        H  0.28286309  0.43082165  0.52650635     0.37700
O147        O  0.24854787  0.40496911  0.51771659    -1.10600
O148        O  0.14552813  0.36745116  0.54446433    -0.67200
Ni149      Ni  0.20683483  0.42895114  0.53240048     1.26300
O150        O  0.29807143  0.47156029  0.44306828    -0.67500
O151        O  0.22089173  0.43364588  0.60327115    -0.79800
C152        C  0.18042209  0.49778040  0.52418145     0.83700
O153        O  0.16808894  0.45737335  0.54424535    -0.66900
Ni154      Ni  0.23676208  0.34725311  0.54960996     1.27400
Ni155      Ni  0.24094344  0.40317765  0.44652206     1.26100
H156        H  0.16002360  0.39024684  0.45606063     0.38200
O157        O  0.56568577  0.18714942  0.33775616    -0.81700
O158        O  0.40654132  0.24507389  0.39243402    -0.66400
O159        O  0.47267099  0.17842013  0.35747556    -1.13000
C160        C  0.44960828  0.20557142  0.19107875     1.05200
O161        O  0.35462716  0.22282636  0.32612605    -0.79600
O162        O  0.35367922  0.14093448  0.28925639    -0.67200
Ni163      Ni  0.53336427  0.19635812  0.39441863     1.34900
C164        C  0.37137894  0.11476267  0.27720786     0.83900
O165        O  0.43262528  0.19208721  0.44469776    -0.80200
O166        O  0.50945169  0.20611505  0.45744264    -0.90400
C167        C  0.37010652  0.24325298  0.36934509     0.83500
O168        O  0.56576289  0.26450017  0.37963540    -0.68600
O169        O  0.40729392  0.19611777  0.20756364    -0.87900
C170        C  0.54875489  0.29186658  0.38803844     0.84300
C171        C  0.46766561  0.19794040  0.47389187     1.05900
H172        H  0.46941694  0.26475008  0.30295033     0.37700
O173        O  0.44652887  0.22958466  0.30668268    -1.10600
O174        O  0.41869993  0.13429876  0.27100425    -0.67200
Ni175      Ni  0.47996177  0.19686915  0.28811342     1.26300
O176        O  0.50169203  0.27494152  0.39245285    -0.67500
O177        O  0.48656074  0.21634596  0.21989996    -0.79800
C178        C  0.55385706  0.17166312  0.29254861     0.83700
O179        O  0.51487169  0.16543503  0.27066835    -0.66900
Ni180      Ni  0.38464506  0.20870007  0.27037491     1.27400
Ni181      Ni  0.43986453  0.21192533  0.37616622     1.26100
H182        H  0.44896990  0.14339626  0.36080376     0.38200
O183        O  0.56442319  0.18782610  0.83823661    -0.81700
O184        O  0.40670493  0.24330541  0.88917682    -0.66400
O185        O  0.46751885  0.17069679  0.85951827    -1.13000
C186        C  0.44842545  0.19975400  0.69087729     1.05200
O187        O  0.35015812  0.21198098  0.82655961    -0.79600
O188        O  0.34811498  0.13305755  0.78189804    -0.67200
Ni189      Ni  0.52589465  0.18280035  0.89675264     1.34900
C190        C  0.36597000  0.10612335  0.77504884     0.83900
O191        O  0.43368619  0.19420915  0.94652310    -0.80200
O192        O  0.49524034  0.17981149  0.96008196    -0.90400
C193        C  0.36749757  0.23688283  0.86739008     0.83500
O194        O  0.56083626  0.25260615  0.89929940    -0.68600
O195        O  0.40739355  0.19417236  0.70659815    -0.87900
C196        C  0.54642365  0.28261234  0.89825288     0.84300
C197        C  0.46132904  0.18692387  0.97572184     1.05900
H198        H  0.46690774  0.25541450  0.80016090     0.37700
O199        O  0.44300110  0.22072119  0.80565349    -1.10600
O200        O  0.41323389  0.12330710  0.77415719    -0.67200
Ni201      Ni  0.47485740  0.18599556  0.78953620     1.26300
O202        O  0.50115565  0.26988472  0.88822670    -0.67500
O203        O  0.48229924  0.20347188  0.72039256    -0.79800
C204        C  0.55156275  0.16784266  0.79480560     0.83700
O205        O  0.50862864  0.15283674  0.77570833    -0.66900
Ni206      Ni  0.38204228  0.20235824  0.76942459     1.27400
Ni207      Ni  0.43796631  0.20767165  0.87609714     1.26100
H208        H  0.44185510  0.13621431  0.86353026     0.38200
O209        O  0.83996075  0.31522364  0.18382894    -0.81700
O210        O  0.77514877  0.09767503  0.22131635    -0.66400
O211        O  0.85282777  0.23588352  0.20195331    -1.13000
C212        C  0.82735982  0.18973136  0.02988334     1.05200
O213        O  0.82198579  0.08600563  0.16807138    -0.79600
O214        O  0.89623057  0.16463916  0.11624966    -0.67200
Ni215      Ni  0.84019780  0.27865133  0.24096723     1.34900
C216        C  0.92338182  0.21129957  0.11375856     0.83900
O217        O  0.82333745  0.17283631  0.28473675    -0.80200
O218        O  0.83903896  0.24761268  0.30300227    -0.90400
C219        C  0.78926858  0.07073145  0.20279709     0.83500
O220        O  0.76855414  0.23937145  0.23682332    -0.68600
O221        O  0.82699109  0.15169800  0.04428293    -0.87900
C222        C  0.73644419  0.19394262  0.22850728     0.84300
C223        C  0.83219820  0.20649458  0.31621499     1.05900
H224        H  0.76957109  0.14764521  0.13375740     0.37700
O225        O  0.80466990  0.16113501  0.14240676    -1.10600
O226        O  0.90547065  0.23830132  0.11863679    -0.67200
Ni227      Ni  0.84108555  0.22988737  0.13060038     1.26300
O228        O  0.74909645  0.16296809  0.21935295    -0.67500
O229        O  0.82844085  0.22137568  0.05981493    -0.79800
C230        C  0.86027525  0.32425580  0.14080042     0.83700
O231        O  0.87560606  0.29878211  0.12132667    -0.66900
Ni232      Ni  0.82448832  0.12158662  0.10807454     1.27400
Ni233      Ni  0.81304087  0.16678121  0.21358522     1.26100
H234        H  0.88813741  0.24673633  0.20876058     0.38200
O235        O  0.83065563  0.30871031  0.67352745    -0.81700
O236        O  0.76965974  0.09605948  0.72605330    -0.66400
O237        O  0.84879195  0.23382969  0.69852260    -1.13000
C238        C  0.82679531  0.17743374  0.53141567     1.05200
O239        O  0.82216207  0.08581344  0.68060900    -0.79600
O240        O  0.89787206  0.16317861  0.62719588    -0.67200
Ni241      Ni  0.83781271  0.27955354  0.73332491     1.34900
C242        C  0.92283980  0.20897187  0.61776706     0.83900
O243        O  0.81290226  0.17600701  0.78695580    -0.80200
O244        O  0.84482946  0.25690287  0.79739217    -0.90400
C245        C  0.78568688  0.06915847  0.71154131     0.83500
O246        O  0.76582439  0.23810252  0.73598388    -0.68600
O247        O  0.83145009  0.14353157  0.55024723    -0.87900
C248        C  0.73303269  0.19352281  0.72394505     0.84300
C249        C  0.82956828  0.21445666  0.81466406     1.05900
H250        H  0.76810018  0.13971788  0.63367535     0.37700
O251        O  0.80313201  0.15563554  0.64414637    -1.10600
O252        O  0.90240166  0.23408429  0.61613118    -0.67200
Ni253      Ni  0.83615784  0.22294014  0.62731581     1.26300
O254        O  0.74478792  0.16241907  0.71257849    -0.67500
O255        O  0.82172318  0.20785036  0.55762739    -0.79800
C256        C  0.85121219  0.31725646  0.63073702     0.83700
O257        O  0.86642879  0.29113392  0.61215427    -0.66900
Ni258      Ni  0.82684514  0.11699500  0.61667236     1.27400
Ni259      Ni  0.80804713  0.16541083  0.71501196     1.26100
H260        H  0.88343687  0.24430606  0.70541103     0.38200
O261        O  0.82678574  0.45770791  0.98411621    -0.81700
O262        O  0.75921221  0.60258058  0.94065055    -0.66400
O263        O  0.84014440  0.54957150  0.96402583    -1.13000
C264        C  0.82139253  0.58035144  0.13378182     1.05200
O265        O  0.81056169  0.66774149  0.98854591    -0.79600
O266        O  0.88895240  0.67020216  0.03956809    -0.67200
Ni267      Ni  0.82925745  0.49373664  0.92615570     1.34900
C268        C  0.91545048  0.65160653  0.04670701     0.83900
O269        O  0.80027602  0.57019460  0.87830359    -0.80200
O270        O  0.83156284  0.52321491  0.86320972    -0.90400
C271        C  0.77436383  0.64566911  0.95647299     0.83500
O272        O  0.75704900  0.45813541  0.92497177    -0.68600
O273        O  0.82399363  0.61838881  0.11589125    -0.87900
C274        C  0.72448186  0.46869669  0.93577466     0.84300
C275        C  0.81411831  0.54870105  0.84844256     1.05900
H276        H  0.76042141  0.55612159  0.03127869     0.37700
O277        O  0.79512230  0.57786308  0.02107957    -1.10600
O278        O  0.89619673  0.60521603  0.04678243    -0.67200
Ni279      Ni  0.83002957  0.54628610  0.03580127     1.26300
O280        O  0.73563485  0.51142328  0.94941615    -0.67500
O281        O  0.81874083  0.54594996  0.10667925    -0.79800
C282        C  0.84766483  0.46938374  0.02731915     0.83700
O283        O  0.86156843  0.51048037  0.04820475    -0.66900
Ni284      Ni  0.81786838  0.64066205  0.05061580     1.27400
Ni285      Ni  0.79836366  0.57466877  0.94992062     1.26100
H286        H  0.87443312  0.57589625  0.95734890     0.38200
O287        O  0.83143044  0.46397166  0.48167437    -0.81700
O288        O  0.76705385  0.61515885  0.43458482    -0.66400
O289        O  0.83943889  0.55454534  0.46716707    -1.13000
C290        C  0.79292517  0.56585459  0.63401807     1.05200
O291        O  0.80285190  0.67053474  0.49571464    -0.79600
O292        O  0.86991788  0.66536080  0.55914610    -0.67200
Ni293      Ni  0.83037503  0.50084655  0.42613159     1.34900
C294        C  0.89718070  0.64725488  0.56426932     0.83900
O295        O  0.82310215  0.59471859  0.38018961    -0.80200
O296        O  0.82942450  0.53020294  0.36393759    -0.90400
C297        C  0.77439895  0.65341600  0.45682343     0.83500
O298        O  0.75869273  0.46417515  0.42791408    -0.68600
O299        O  0.79119181  0.60196620  0.61768355    -0.87900
C300        C  0.72759258  0.47783639  0.42548153     0.84300
C301        C  0.82777854  0.56690135  0.34983170     1.05900
H302        H  0.74817696  0.55220953  0.51986067     0.37700
O303        O  0.78410869  0.57592907  0.51770419    -1.10600
O304        O  0.88073786  0.60197393  0.55625551    -0.67200
Ni305      Ni  0.81771865  0.54354115  0.53638640     1.26300
O306        O  0.74025878  0.52260605  0.43115545    -0.67500
O307        O  0.79722399  0.53638779  0.60518506    -0.79800
C308        C  0.84243872  0.47041973  0.52822727     0.83700
O309        O  0.84828288  0.50723385  0.55284732    -0.66900
Ni310      Ni  0.79762139  0.63334057  0.55477989     1.27400
Ni311      Ni  0.80293207  0.58454791  0.44882049     1.26100
H312        H  0.87505612  0.57986767  0.46622677     0.38200
C313        C  0.78227361  0.50998336  0.76283243    -0.02700
C314        C  0.80847441  0.55279385  0.79376575     0.07000
C315        C  0.82691257  0.59938214  0.77287265    -0.02800
C316        C  0.82025565  0.60363260  0.72122016    -0.02800
C317        C  0.79413406  0.56071683  0.68965941     0.07100
C318        C  0.77433628  0.51383339  0.71128096    -0.03000
Br319      Br  0.73415902  0.45409909  0.67135159    -0.01500
Br320      Br  0.75582306  0.44535529  0.79084197    -0.01600
Br321      Br  0.85165622  0.66975905  0.69499755    -0.01600
Br322      Br  0.86507068  0.65822532  0.81465723    -0.01500
C323        C  0.78647153  0.57806597  0.21882821    -0.02700
C324        C  0.82323883  0.57752313  0.18910805     0.07000
C325        C  0.86415722  0.57842967  0.21254697    -0.02800
C326        C  0.86664541  0.57662133  0.26528788    -0.02800
C327        C  0.82902175  0.57556266  0.29510754     0.07100
C328        C  0.78969006  0.57781249  0.27168156    -0.03000
Br329      Br  0.73839801  0.57808617  0.31128590    -0.01500
Br330      Br  0.73039508  0.57716466  0.18705260    -0.01600
Br331      Br  0.92313202  0.57802935  0.29670315    -0.01600
Br332      Br  0.91884404  0.58588471  0.17259810    -0.01500
C333        C  0.88933324  0.40659910  0.61202649    -0.02700
C334        C  0.85326624  0.35665183  0.60074213     0.07000
C335        C  0.81499192  0.34415118  0.56481453    -0.02800
C336        C  0.81065492  0.38121718  0.54247977    -0.02800
C337        C  0.84660198  0.43170738  0.55383511     0.07100
C338        C  0.88679635  0.44412253  0.58778563    -0.03000
Br339      Br  0.94014652  0.51208122  0.59890411    -0.01500
Br340      Br  0.94256876  0.42312992  0.66026775    -0.01600
Br341      Br  0.75282954  0.36139565  0.49893849    -0.01600
Br342      Br  0.76756904  0.27568287  0.54706685    -0.01500
C343        C  0.89747356  0.41186291  0.11624719    -0.02700
C344        C  0.86011555  0.36162683  0.10993074     0.07000
C345        C  0.82119088  0.34618973  0.07409184    -0.02800
C346        C  0.81719250  0.38102952  0.04680084    -0.02800
C347        C  0.85333099  0.43230011  0.05448455     0.07100
C348        C  0.89469830  0.44723783  0.08802841    -0.03000
Br349      Br  0.95012685  0.51520794  0.09284604    -0.01500
Br350      Br  0.95321033  0.43150435  0.16235511    -0.01600
Br351      Br  0.76053887  0.35589413  0.00015999    -0.01600
Br352      Br  0.77279305  0.27657247  0.06216289    -0.01500
C353        C  0.87428912  0.23767869  0.89889913    -0.02700
C354        C  0.82935965  0.20950148  0.87005444     0.07000
C355        C  0.78308855  0.17898292  0.89480279    -0.02800
C356        C  0.78241895  0.17233326  0.94712047    -0.02800
C357        C  0.82767526  0.19803432  0.97537028     0.07100
C358        C  0.87328566  0.23226546  0.95153710    -0.03000
Br359      Br  0.93419379  0.27244653  0.99116059    -0.01500
Br360      Br  0.93714575  0.28411197  0.86668695    -0.01600
Br361      Br  0.71927231  0.12992970  0.98076369    -0.01600
Br362      Br  0.72007673  0.15107513  0.85817068    -0.01500
C363        C  0.80186663  0.14966382  0.39148212    -0.02700
C364        C  0.83387414  0.19745674  0.37102769     0.07000
C365        C  0.86661996  0.23718036  0.40399087    -0.02800
C366        C  0.86511100  0.22986504  0.45617435    -0.02800
C367        C  0.82989699  0.18344261  0.47637094     0.07100
C368        C  0.79915604  0.14312995  0.44396453    -0.03000
Br369      Br  0.75158378  0.07903465  0.47163875    -0.01500
Br370      Br  0.76089319  0.09185271  0.34947769    -0.01600
Br371      Br  0.91428642  0.28292106  0.49983262    -0.01600
Br372      Br  0.91663993  0.30156549  0.37863665    -0.01500
C373        C  0.66659123  0.21367413  0.71548059    -0.02700
C374        C  0.67895914  0.17826541  0.72591018     0.07000
C375        C  0.64139449  0.13272638  0.74679683    -0.02800
C376        C  0.59784161  0.12804912  0.76784679    -0.02800
C377        C  0.59007909  0.16710449  0.76437432     0.07100
C378        C  0.62258748  0.20837821  0.73527825    -0.03000
Br379      Br  0.60868661  0.25947307  0.72572872    -0.01500
Br380      Br  0.70917667  0.26915687  0.67312766    -0.01600
Br381      Br  0.55040039  0.06982736  0.80439347    -0.01600
Br382      Br  0.64819005  0.07658367  0.74659555    -0.01500
C383        C  0.65360690  0.39113896  0.96918740    -0.02700
C384        C  0.67119200  0.42793551  0.93289968     0.07000
C385        C  0.64178218  0.42036042  0.88939176    -0.02800
C386        C  0.59814167  0.37341346  0.87912559    -0.02800
C387        C  0.58465458  0.33431731  0.91236503     0.07100
C388        C  0.61116019  0.34403777  0.95865169    -0.03000
Br389      Br  0.59115755  0.29266413  0.00729818    -0.01500
Br390      Br  0.68866600  0.40603885  0.03316644    -0.01600
Br391      Br  0.56017236  0.36183595  0.81760712    -0.01600
Br392      Br  0.66264476  0.47374979  0.84329180    -0.01500
C393        C  0.64788075  0.13649868  0.26116227    -0.02700
C394        C  0.68207419  0.17762246  0.23193925     0.07000
C395        C  0.66610419  0.20827474  0.21306022    -0.02800
C396        C  0.61933570  0.20068185  0.22702334    -0.02800
C397        C  0.59023575  0.16560670  0.26357078     0.07100
C398        C  0.60301691  0.13174503  0.27854562    -0.03000
Br399      Br  0.55945546  0.07979260  0.32398538    -0.01500
Br400      Br  0.66314190  0.08845436  0.28087812    -0.01600
Br401      Br  0.59736704  0.24146355  0.19907467    -0.01600
Br402      Br  0.70910400  0.26359293  0.17098416    -0.01500
C403        C  0.59488142  0.36844431  0.44222471    -0.02700
C404        C  0.58617140  0.34536623  0.39447097     0.07000
C405        C  0.61902508  0.37141371  0.35481741    -0.02800
C406        C  0.66339068  0.41772538  0.36410804    -0.02800
C407        C  0.67473637  0.43874676  0.41298183     0.07100
C408        C  0.63907803  0.41529411  0.45136692    -0.03000
Br409      Br  0.65329029  0.44522202  0.51754806    -0.01500
Br410      Br  0.54954129  0.33396188  0.49666113    -0.01600
Br411      Br  0.71067869  0.45041113  0.31052201    -0.01600
Br412      Br  0.60407654  0.34226548  0.28815838    -0.01500
C413        C  0.44087854  0.22656731  0.60493329    -0.02700
C414        C  0.45563682  0.20072553  0.63566491     0.07000
C415        C  0.47367303  0.17325331  0.61296673    -0.02800
C416        C  0.47811054  0.17282651  0.56026191    -0.02800
C417        C  0.46112734  0.19691971  0.52936100     0.07100
C418        C  0.44083092  0.22239144  0.55221811    -0.03000
Br419      Br  0.41297497  0.25254383  0.51260816    -0.01500
Br420      Br  0.42425321  0.27115555  0.63474376    -0.01600
Br421      Br  0.50484700  0.13627353  0.53089113    -0.01600
Br422      Br  0.48913048  0.13302948  0.65308065    -0.01500
C423        C  0.45714012  0.16238270  0.11620356    -0.02700
C424        C  0.45469116  0.20170305  0.13642275     0.07000
C425        C  0.45468188  0.23605748  0.10421589    -0.02800
C426        C  0.45587292  0.23067367  0.05176112    -0.02800
C427        C  0.45649759  0.19024663  0.03097178     0.07100
C428        C  0.45789766  0.15651714  0.06367752    -0.03000
Br429      Br  0.45936856  0.10119092  0.03712645    -0.01500
Br430      Br  0.45832906  0.11573430  0.16044692    -0.01600
Br431      Br  0.46108429  0.28169722  0.00949260    -0.01600
Br432      Br  0.45591172  0.29220057  0.13258251    -0.01500
C433        C  0.04583224  0.24417935  0.55153686    -0.02700
C434        C  0.08002811  0.29082599  0.57351272     0.07000
C435        C  0.06275507  0.30834492  0.61266801    -0.02800
C436        C  0.01232290  0.28034199  0.62876661    -0.02800
C437        C  0.97766293  0.23453184  0.60575685     0.07100
C438        C  0.99470518  0.21648451  0.56699112    -0.03000
Br439      Br  0.94713689  0.15639241  0.53097231    -0.01500
Br440      Br  0.06789726  0.22013389  0.49736651    -0.01600
Br441      Br  0.99088234  0.30541310  0.68285030    -0.01600
Br442      Br  0.10732741  0.37128677  0.64546320    -0.01500
C443        C  0.29159001  0.24076336  0.39541419    -0.02700
C444        C  0.34491065  0.26645923  0.39329577     0.07000
C445        C  0.37418109  0.31524442  0.41283269    -0.02800
C446        C  0.35035058  0.33797229  0.43376649    -0.02800
C447        C  0.29706686  0.31302704  0.43388939     0.07100
C448        C  0.26779019  0.26404008  0.41518884    -0.03000
Br449      Br  0.19483659  0.22902225  0.41469437    -0.01500
Br450      Br  0.25077106  0.17276444  0.37306735    -0.01600
Br451      Br  0.39108449  0.40253453  0.46499942    -0.01600
Br452      Br  0.44717155  0.35268894  0.40870687    -0.01500
C453        C  0.20482720  0.37092137  0.76989430    -0.02700
C454        C  0.21176180  0.41410848  0.79226707     0.07000
C455        C  0.22293862  0.45439275  0.76126098    -0.02800
C456        C  0.23451585  0.45406630  0.71025731    -0.02800
C457        C  0.22602633  0.41036786  0.68726902     0.07100
C458        C  0.20836912  0.36785634  0.71740707    -0.03000
Br459      Br  0.18367832  0.30322523  0.68813566    -0.01500
Br460      Br  0.18756655  0.31423646  0.81040580    -0.01600
Br461      Br  0.26594111  0.51540936  0.67393999    -0.01600
Br462      Br  0.22430016  0.51164665  0.78736451    -0.01500
C463        C  0.19263157  0.36372600  0.26815108    -0.02700
C464        C  0.21394985  0.41048166  0.29086479     0.07000
C465        C  0.24293844  0.45324308  0.26190799    -0.02800
C466        C  0.25203533  0.44921477  0.21089089    -0.02800
C467        C  0.22818352  0.40238062  0.18700197     0.07100
C468        C  0.19816244  0.35942806  0.21615550    -0.03000
Br469      Br  0.16098069  0.29418922  0.18576692    -0.01500
Br470      Br  0.15366326  0.30552212  0.30837568    -0.01600
Br471      Br  0.30029521  0.50812566  0.17518324    -0.01600
Br472      Br  0.27057560  0.51786908  0.29169559    -0.01500
C473        C  0.06263455  0.31069475  0.10738212    -0.02700
C474        C  0.07868929  0.29404145  0.06639523     0.07000
C475        C  0.04408672  0.24796939  0.04348548    -0.02800
C476        C  0.99362534  0.21963182  0.06020294    -0.02800
C477        C  0.97787548  0.23625137  0.10143261     0.07100
C478        C  0.01315736  0.28138783  0.12550967    -0.03000
Br479      Br  0.99439913  0.30336582  0.18452547    -0.01500
Br480      Br  0.10754144  0.37393408  0.14012523    -0.01600
Br481      Br  0.94534528  0.16077584  0.02261914    -0.01600
Br482      Br  0.06437252  0.22549508  0.98625819    -0.01500
C483        C  0.34382225  0.32847686  0.93254834    -0.02700
C484        C  0.29055060  0.30281891  0.93107446     0.07000
C485        C  0.26230327  0.25468791  0.91045095    -0.02800
C486        C  0.28722771  0.23242589  0.89107505    -0.02800
C487        C  0.34079663  0.25893801  0.89042050     0.07100
C488        C  0.36890281  0.30742663  0.91096480    -0.03000
Br489      Br  0.44186930  0.34754172  0.90650567    -0.01500
Br490      Br  0.38279285  0.39199671  0.96647326    -0.01600
Br491      Br  0.24717614  0.16478731  0.86737115    -0.01600
Br492      Br  0.18942121  0.21986714  0.90668613    -0.01500
C493        C  0.73147848  0.93075745  0.71750846    -0.02700
C494        C  0.71002710  0.91943229  0.76580927     0.07000
C495        C  0.71740362  0.95771236  0.79802639    -0.02800
C496        C  0.74441398  0.00695563  0.78146459    -0.02800
C497        C  0.76230545  0.01808340  0.73139422     0.07100
C498        C  0.75586455  0.97935133  0.69965537    -0.03000
Br499      Br  0.77542633  0.99051283  0.62974659    -0.01500
Br500      Br  0.72559339  0.87914053  0.67436621    -0.01600
Br501      Br  0.75810697  0.05865295  0.82884367    -0.01600
Br502      Br  0.69168526  0.94246577  0.86555844    -0.01500
C503        C  0.77874117  0.71960821  0.91932523    -0.02700
C504        C  0.74978804  0.67052717  0.93615700     0.07000
C505        C  0.69650428  0.64425916  0.93262516    -0.02800
C506        C  0.67250102  0.66575155  0.90984698    -0.02800
C507        C  0.70117512  0.71555621  0.89467411     0.07100
C508        C  0.75448459  0.74259428  0.90024672    -0.03000
Br509      Br  0.79482307  0.81180534  0.88424628    -0.01500
Br510      Br  0.85174277  0.75488135  0.91980802    -0.01600
Br511      Br  0.60040823  0.62478207  0.89638459    -0.01600
Br512      Br  0.65550037  0.57955756  0.96184518    -0.01500
C513        C  0.44972186  0.60907983  0.94650350    -0.02700
C514        C  0.45715644  0.63299523  0.90025295     0.07000
C515        C  0.42481371  0.60732019  0.85938846    -0.02800
C516        C  0.38064299  0.56108441  0.86692696    -0.02800
C517        C  0.36773782  0.54142760  0.91566210     0.07100
C518        C  0.40448575  0.56325086  0.95455619    -0.03000
Br519      Br  0.39265537  0.53156303  0.01865482    -0.01500
Br520      Br  0.50155163  0.63908944  0.99802163    -0.01600
Br521      Br  0.33989768  0.52328133  0.81004947    -0.01600
Br522      Br  0.44156444  0.63577206  0.79334683    -0.01500
C523        C  0.75775108  0.95419275  0.27168902    -0.02700
C524        C  0.70752209  0.92118622  0.25431335     0.07000
C525        C  0.68691393  0.93757085  0.21756050    -0.02800
C526        C  0.71462182  0.98618566  0.20055902    -0.02800
C527        C  0.76359586  0.01923253  0.21917152     0.07100
C528        C  0.78548337  0.00344102  0.25453272    -0.03000
Br529      Br  0.85218632  0.05023582  0.28111064    -0.01500
Br530      Br  0.78802969  0.93307348  0.32008808    -0.01600
Br531      Br  0.68527338  0.00823343  0.15140012    -0.01600
Br532      Br  0.62137900  0.89371920  0.18725483    -0.01500
C533        C  0.67329076  0.66884993  0.39780678    -0.02700
C534        C  0.69706218  0.72051330  0.39717337     0.07000
C535        C  0.74656233  0.75071140  0.41687004    -0.02800
C536        C  0.77258244  0.72938117  0.43593499    -0.02800
C537        C  0.74844100  0.67739578  0.43692802     0.07100
C538        C  0.69806513  0.64731878  0.41864483    -0.03000
Br539      Br  0.66064894  0.57602451  0.42411372    -0.01500
Br540      Br  0.60760595  0.62672994  0.36720883    -0.01600
Br541      Br  0.84194020  0.77210449  0.45819401    -0.01600
Br542      Br  0.77792687  0.82136660  0.41951513    -0.01500
C543        C  0.39256496  0.55725813  0.39709429    -0.02700
C544        C  0.34975948  0.55643973  0.41530845     0.07000
C545        C  0.35316688  0.60214197  0.42099185    -0.02800
C546        C  0.40014013  0.64650771  0.41916227    -0.02800
C547        C  0.44198398  0.64783995  0.39781680     0.07100
C548        C  0.43731480  0.60278866  0.38545330    -0.03000
Br549      Br  0.48901159  0.60301563  0.34716956    -0.01500
Br550      Br  0.38789943  0.49644442  0.38036467    -0.01600
Br551      Br  0.40587059  0.70487956  0.44845160    -0.01600
Br552      Br  0.29476730  0.60806195  0.42192094    -0.01500
C553        C  0.58358032  0.73960525  0.55495924    -0.02700
C554        C  0.57646399  0.77568459  0.53406562     0.07000
C555        C  0.57550382  0.81046578  0.56579433    -0.02800
C556        C  0.58229441  0.80971122  0.61806015    -0.02800
C557        C  0.58770432  0.77265384  0.63933743     0.07100
C558        C  0.58862554  0.73774928  0.60750157    -0.03000
Br559      Br  0.59534037  0.68637003  0.63566309    -0.01500
Br560      Br  0.58475476  0.69155812  0.51185685    -0.01600
Br561      Br  0.58905149  0.86259228  0.65959704    -0.01600
Br562      Br  0.56765891  0.86109447  0.53732294    -0.01500
C563        C  0.53538991  0.75426678  0.06552684    -0.02700
C564        C  0.57939103  0.78080403  0.03578916     0.07000
C565        C  0.62748153  0.80329578  0.05900659    -0.02800
C566        C  0.63179717  0.79885179  0.11114013    -0.02800
C567        C  0.58777902  0.77185490  0.14070368     0.07100
C568        C  0.53974248  0.74852987  0.11736009    -0.03000
Br569      Br  0.47979370  0.70501369  0.15561527    -0.01500
Br570      Br  0.46829349  0.72483502  0.03639159    -0.01600
Br571      Br  0.69880636  0.83184620  0.14130808    -0.01600
Br572      Br  0.68776299  0.84414728  0.02019414    -0.01500
C573        C  0.01752224  0.69295064  0.64119137    -0.02700
C574        C  0.05246729  0.73646364  0.61606122     0.07000
C575        C  0.03553535  0.75253559  0.57556329    -0.02800
C576        C  0.98451469  0.72420132  0.55921835    -0.02800
C577        C  0.95019040  0.67933742  0.58282798     0.07100
C578        C  0.96686831  0.66431802  0.62449062    -0.03000
Br579      Br  0.92073206  0.60452944  0.65980419    -0.01500
Br580      Br  0.03881140  0.67279904  0.69941758    -0.01600
Br581      Br  0.96287689  0.74482016  0.50164408    -0.01600
Br582      Br  0.08283750  0.81118226  0.53927842    -0.01500
C583        C  0.29317136  0.96642066  0.78508420    -0.02700
C584        C  0.27765839  0.95194138  0.73438932     0.07000
C585        C  0.28826385  0.98844914  0.69850986    -0.02800
C586        C  0.31392248  0.03847389  0.71307231    -0.02800
C587        C  0.33110821  0.05301928  0.76308692     0.07100
C588        C  0.32018718  0.01688679  0.79917053    -0.03000
Br589      Br  0.34203387  0.03687818  0.86797140    -0.01500
Br590      Br  0.27665688  0.91755874  0.83578885    -0.01600
Br591      Br  0.32718081  0.08738466  0.66348697    -0.01600
Br592      Br  0.27230597  0.97120943  0.62792874    -0.01500
C593        C  0.37108015  0.75890382  0.71889552    -0.02700
C594        C  0.35322605  0.78767998  0.73882859     0.07000
C595        C  0.38443392  0.82661389  0.77306046    -0.02800
C596        C  0.43142892  0.83472310  0.78889515    -0.02800
C597        C  0.44758118  0.80420006  0.77076942     0.07100
C598        C  0.41838268  0.76780032  0.73412753    -0.03000
Br599      Br  0.44143364  0.72712024  0.70802703    -0.01500
Br600      Br  0.32958552  0.70436470  0.67368710    -0.01600
Br601      Br  0.47275407  0.88580091  0.83785186    -0.01600
Br602      Br  0.36018341  0.86436767  0.80427569    -0.01500
C603        C  0.13128200  0.52378213  0.57592598    -0.02700
C604        C  0.17681113  0.53497873  0.55320379     0.07000
C605        C  0.21948435  0.58345904  0.55618176    -0.02800
C606        C  0.21471825  0.62158125  0.57424237    -0.02800
C607        C  0.17105011  0.61040709  0.59997670     0.07100
C608        C  0.12930417  0.56136654  0.60142982    -0.03000
Br609      Br  0.07018001  0.54616837  0.63839908    -0.01500
Br610      Br  0.07237255  0.45752882  0.57298132    -0.01600
Br611      Br  0.26686031  0.68919610  0.56126884    -0.01600
Br612      Br  0.28634322  0.59625890  0.54703811    -0.01500
C613        C  0.03909650  0.74763883  0.11344759    -0.02700
C614        C  0.07341803  0.73644227  0.09339396     0.07000
C615        C  0.05604905  0.69954993  0.05500205    -0.02800
C616        C  0.00546663  0.67452049  0.03738546    -0.02800
C617        C  0.97073592  0.68453737  0.05864119     0.07100
C618        C  0.98819874  0.72194806  0.09628446    -0.03000
Br619      Br  0.94219124  0.73675367  0.12715519    -0.01500
Br620      Br  0.06054013  0.79550118  0.16763336    -0.01600
Br621      Br  0.98453642  0.62805487  0.98178110    -0.01600
Br622      Br  0.10100555  0.68296314  0.02452033    -0.01500
C623        C  0.25833634  0.99025280  0.22855301    -0.02700
C624        C  0.28002783  0.96155528  0.22745076     0.07000
C625        C  0.33004769  0.98246256  0.24586413    -0.02800
C626        C  0.35669878  0.02985720  0.26786506    -0.02800
C627        C  0.33691692  0.06045713  0.26587746     0.07100
C628        C  0.28684399  0.03972988  0.24654274    -0.03000
Br629      Br  0.25627784  0.07815931  0.24240588    -0.01500
Br630      Br  0.18938342  0.96193977  0.20552623    -0.01600
Br631      Br  0.41949577  0.05034606  0.30301113    -0.01600
Br632      Br  0.36559690  0.94889662  0.23630984    -0.01500
C633        C  0.39097102  0.84687416  0.29471817    -0.02700
C634        C  0.37159380  0.82786800  0.24624987     0.07000
C635        C  0.40348476  0.82587518  0.21066059    -0.02800
C636        C  0.44996177  0.83241116  0.22618852    -0.02800
C637        C  0.46565074  0.84357213  0.27732451     0.07100
C638        C  0.43896762  0.85717802  0.30926794    -0.03000
Br639      Br  0.46683925  0.88781834  0.37429242    -0.01500
Br640      Br  0.34967142  0.85306909  0.34358829    -0.01600
Br641      Br  0.48877503  0.82252980  0.17747229    -0.01600
Br642      Br  0.38268101  0.81394149  0.14090067    -0.01500
C643        C  0.24685098  0.58682488  0.07634713    -0.02700
C644        C  0.20095744  0.54572459  0.05838621     0.07000
C645        C  0.15489380  0.54224221  0.06739741    -0.02800
C646        C  0.15471271  0.57932437  0.09576260    -0.02800
C647        C  0.20064258  0.62004893  0.11441340     0.07100
C648        C  0.24665923  0.62364062  0.10469976    -0.03000
Br649      Br  0.31010556  0.68003865  0.12832753    -0.01500
Br650      Br  0.31039926  0.59319443  0.06148686    -0.01600
Br651      Br  0.09168425  0.57369690  0.11048715    -0.01600
Br652      Br  0.09280140  0.48879392  0.03776845    -0.01500
C653        C  0.18303263  0.77898081  0.89663519    -0.02700
C654        C  0.21087856  0.76188052  0.87335811     0.07000
C655        C  0.24411919  0.75449468  0.90221187    -0.02800
C656        C  0.25061056  0.76558611  0.95421613    -0.02800
C657        C  0.22298321  0.78323545  0.97796621     0.07100
C658        C  0.18884569  0.78968506  0.94856080    -0.03000
Br659      Br  0.14737014  0.81106793  0.97814770    -0.01500
Br660      Br  0.13484618  0.78535786  0.85713310    -0.01600
Br661      Br  0.30018819  0.75971342  0.99152002    -0.01600
Br662      Br  0.28222091  0.73067279  0.87008322    -0.01500
C663        C  0.22483376  0.82851388  0.44996294    -0.02700
C664        C  0.19927495  0.78551892  0.47963004     0.07000
C665        C  0.17276013  0.73883050  0.45511500    -0.02800
C666        C  0.17675912  0.73493508  0.40272169    -0.02800
C667        C  0.20488146  0.77773181  0.37348413     0.07100
C668        C  0.22594061  0.82457010  0.39709041    -0.03000
Br669      Br  0.25675932  0.88418441  0.35799032    -0.01500
Br670      Br  0.26114565  0.89361250  0.48086560    -0.01600
Br671      Br  0.14005733  0.67043440  0.37068440    -0.01600
Br672      Br  0.12712916  0.67986104  0.49214700    -0.01500
loop_ 
_geom_bond_atom_site_label_1 
_geom_bond_atom_site_label_2 
_geom_bond_distance 
_geom_bond_site_symmetry_2 
_ccdc_geom_bond_type 
O1           Ni7   1.926       .  S
O1           C22   1.271       .  A
O2          Ni25   1.881       .  S
O2           C11   1.260       .  A
O3           Ni7   1.925       .  S
O3          Ni25   1.904       .  S
O3          Ni19   1.919       .  S
O3           H26   0.966       .  S
C4           O21   1.274       .  A
C4           O13   1.270       .  A
C4          C657   1.492   1_554  S
O5          Ni24   1.944       .  S
O5           C11   1.274       .  A
O6          Ni24   1.930       .  S
O6            C8   1.279       .  A
Ni7          O10   1.943       .  S
Ni7          O12   1.906       .  S
C8           O18   1.273       .  A
C8          C614   1.499       .  S
O9          Ni25   1.905       .  S
O9           C15   1.267       .  A
O10          C15   1.276       .  A
C11         C624   1.492       .  S
O12          C14   1.266       .  A
O13         Ni24   1.916       .  S
C14          O20   1.274       .  A
C14         C634   1.484       .  S
C15         C667   1.493       .  S
H16          O17   0.966       .  S
O17         Ni25   1.915       .  S
O17         Ni19   1.911       .  S
O17         Ni24   1.927       .  S
O18         Ni19   1.928       .  S
Ni19         O23   1.898       .  S
Ni19         O21   1.919       .  S
O20         Ni25   1.949       .  S
C22          O23   1.266       .  A
C22         C647   1.470       .  S
O27         Ni33   1.925       .  S
O27          C48   1.271       .  A
O28         Ni51   1.912       .  S
O28          C37   1.271       .  A
O29         Ni33   1.910       .  S
O29         Ni51   1.908       .  S
O29         Ni45   1.922       .  S
O29          H52   0.964       .  S
C30          O47   1.279       .  A
C30          O39   1.281       .  A
C30         C664   1.495       .  S
O31         Ni50   1.939       .  S
O31          C37   1.275       .  A
O32         Ni50   1.912       .  S
O32          C34   1.268       .  A
Ni33         O36   1.919       .  S
Ni33         O38   1.908       .  S
C34          O44   1.270       .  A
C34         C574   1.484       .  S
O35         Ni51   1.917       .  S
O35          C41   1.275       .  A
O36          C41   1.274       .  A
C37         C584   1.489       .  S
O38          C40   1.270       .  A
O39         Ni50   1.942       .  S
C40          O46   1.277       .  A
C40         C594   1.489       .  S
C41         C654   1.474       .  S
H42          O43   0.967       .  S
O43         Ni51   1.904       .  S
O43         Ni45   1.890       .  S
O43         Ni50   1.905       .  S
O44         Ni45   1.927       .  S
Ni45         O49   1.904       .  S
Ni45         O47   1.914       .  S
O46         Ni51   1.941       .  S
C48          O49   1.264       .  A
C48         C607   1.464       .  S
O53         Ni59   1.909       .  S
O53          C74   1.268       .  A
O54         Ni77   1.900       .  S
O54          C63   1.265       .  A
O55         Ni59   1.905       .  S
O55         Ni77   1.924       .  S
O55         Ni71   1.935       .  S
O55          H78   0.966       .  S
C56          O73   1.280       .  A
C56          O65   1.274       .  A
C56         C567   1.481       .  S
O57         Ni76   1.937       .  S
O57          C63   1.274       .  A
O58         Ni76   1.934       .  S
O58          C60   1.274       .  A
Ni59         O62   1.943       .  S
Ni59         O64   1.888       .  S
C60          O70   1.269       .  A
C60         C524   1.494       .  S
O61         Ni77   1.896       .  S
O61          C67   1.264       .  A
O62          C67   1.273       .  A
C63         C534   1.482       .  S
O64          C66   1.261       .  A
O65         Ni76   1.915       .  S
C66          O72   1.280       .  A
C66         C547   1.491       .  S
C67         C554   1.477       .  S
H68          O69   0.966       .  S
O69         Ni77   1.892       .  S
O69         Ni71   1.902       .  S
O69         Ni76   1.920       .  S
O70         Ni71   1.914       .  S
Ni71         O75   1.932       .  S
Ni71         O73   1.921       .  S
O72         Ni77   1.973       .  S
C74          O75   1.271       .  A
C74         C637   1.500       .  S
O79         Ni85   1.923       .  S
O79         C100   1.269       .  A
O80        Ni103   1.893       .  S
O80          C89   1.266       .  A
O81         Ni85   1.914       .  S
O81        Ni103   1.908       .  S
O81         Ni97   1.915       .  S
O81         H104   0.966       .  S
C82          O99   1.273       .  A
C82          O91   1.275       .  A
C82         C557   1.482       .  S
O83        Ni102   1.937       .  S
O83          C89   1.274       .  A
O84        Ni102   1.912       .  S
O84          C86   1.272       .  A
Ni85         O88   1.913       .  S
Ni85         O90   1.911       .  S
C86          O96   1.277       .  A
C86         C494   1.481       .  S
O87        Ni103   1.924       .  S
O87          C93   1.277       .  A
O88          C93   1.271       .  A
C89         C507   1.486       .  S
O90          C92   1.270       .  A
O91        Ni102   1.932       .  S
C92          O98   1.267       .  A
C92         C514   1.468       .  S
C93         C564   1.484   1_556  S
H94          O95   0.966       .  S
O95        Ni103   1.916       .  S
O95         Ni97   1.905       .  S
O95        Ni102   1.912       .  S
O96         Ni97   1.936       .  S
Ni97        O101   1.917       .  S
Ni97         O99   1.909       .  S
O98        Ni103   1.918       .  S
C100        O101   1.269       .  A
C100        C597   1.476       .  S
O105       Ni111   1.921       .  S
O105        C126   1.271   1_556  A
O106       Ni129   1.893       .  S
O106        C115   1.269       .  A
O107       Ni111   1.891       .  S
O107       Ni129   1.892       .  S
O107       Ni123   1.906   1_556  S
O107        H130   0.967       .  S
C108        O125   1.279       .  A
C108        O117   1.279       .  A
C108        C467   1.489       .  S
O109       Ni128   1.942   1_556  S
O109        C115   1.278       .  A
O110       Ni128   1.924       .  S
O110        C112   1.274       .  A
Ni111       O114   1.910       .  S
Ni111       O116   1.922       .  S
C112        O122   1.269       .  A
C112        C474   1.488       .  S
O113       Ni129   1.927       .  S
O113        C119   1.278       .  A
O114        C119   1.272       .  A
C115        C484   1.480       .  S
O116        C118   1.273       .  A
O117       Ni128   1.931       .  S
C118        O124   1.271       .  A
C118        C517   1.481       .  S
C119        C454   1.485       .  S
H120        O121   0.966       .  S
O121       Ni129   1.906   1_554  S
O121       Ni123   1.891       .  S
O121       Ni128   1.899       .  S
O122       Ni123   1.913       .  S
Ni123       O127   1.908       .  S
Ni123       O125   1.912       .  S
O124       Ni129   1.927       .  S
C126        O127   1.268       .  A
C126        C644   1.467       .  S
O131       Ni137   1.933       .  S
O131        C152   1.273       .  A
O132       Ni155   1.907       .  S
O132        C141   1.275       .  A
O133       Ni137   1.893       .  S
O133       Ni155   1.899       .  S
O133       Ni149   1.921       .  S
O133        H156   0.966       .  S
C134        O151   1.281       .  A
C134        O143   1.277       .  A
C134        C457   1.494       .  S
O135       Ni154   1.941       .  S
O135        C141   1.280       .  A
O136       Ni154   1.944       .  S
O136        C138   1.277       .  A
Ni137       O140   1.922       .  S
Ni137       O142   1.889       .  S
C138        O148   1.266       .  A
C138        C434   1.496       .  S
O139       Ni155   1.922       .  S
O139        C145   1.276       .  A
O140        C145   1.276       .  A
C141        C447   1.488       .  S
O142        C144   1.263       .  A
O143       Ni154   1.923       .  S
C144        O150   1.282       .  A
C144        C544   1.497       .  S
C145        C464   1.476       .  S
H146        O147   0.967       .  S
O147       Ni155   1.902       .  S
O147       Ni149   1.883       .  S
O147       Ni154   1.896       .  S
O148       Ni149   1.908       .  S
Ni149       O153   1.899       .  S
Ni149       O151   1.918       .  S
O150       Ni155   1.955       .  S
C152        O153   1.264       .  A
C152        C604   1.473       .  S
O157       Ni163   1.929       .  S
O157        C178   1.271       .  A
O158       Ni181   1.901       .  S
O158        C167   1.266       .  A
O159       Ni163   1.925       .  S
O159       Ni181   1.913       .  S
O159       Ni175   1.919       .  S
O159        H182   0.965       .  S
C160        O177   1.266       .  A
C160        O169   1.273       .  A
C160        C424   1.474       .  S
O161       Ni180   1.938       .  S
O161        C167   1.274       .  A
O162       Ni180   1.922       .  S
O162        C164   1.273       .  A
Ni163       O166   1.931       .  S
Ni163       O168   1.902       .  S
C164        O174   1.275       .  A
C164        C627   1.505       .  S
O165       Ni181   1.910       .  S
O165        C171   1.268       .  A
O166        C171   1.271       .  A
C167        C444   1.490       .  S
O168        C170   1.270       .  A
O169       Ni180   1.942       .  S
C170        O176   1.276       .  A
C170        C404   1.479       .  S
C171        C417   1.488       .  S
H172        O173   0.966       .  S
O173       Ni181   1.917       .  S
O173       Ni175   1.907       .  S
O173       Ni180   1.926       .  S
O174       Ni175   1.939       .  S
Ni175       O179   1.904       .  S
Ni175       O177   1.900       .  S
O176       Ni181   1.950       .  S
C178        O179   1.264       .  A
C178        C397   1.477       .  S
O183       Ni189   1.930       .  S
O183        C204   1.269       .  A
O184       Ni207   1.898       .  S
O184        C193   1.267       .  A
O185       Ni189   1.920       .  S
O185       Ni207   1.911       .  S
O185       Ni201   1.912       .  S
O185        H208   0.966       .  S
C186        O203   1.268       .  A
C186        O195   1.274       .  A
C186        C414   1.485       .  S
O187       Ni206   1.936       .  S
O187        C193   1.274       .  A
O188       Ni206   1.918       .  S
O188        C190   1.272       .  A
Ni189       O192   1.922       .  S
Ni189       O194   1.897       .  S
C190        O200   1.274       .  A
C190        C587   1.480       .  S
O191       Ni207   1.914       .  S
O191        C197   1.273       .  A
O192        C197   1.274       .  A
C193        C487   1.489       .  S
O194        C196   1.268       .  A
O195       Ni206   1.930       .  S
C196        O202   1.274       .  A
C196        C387   1.477       .  S
C197        C427   1.486   1_556  S
H198        O199   0.966       .  S
O199       Ni207   1.911       .  S
O199       Ni201   1.905       .  S
O199       Ni206   1.919       .  S
O200       Ni201   1.937       .  S
Ni201       O205   1.900       .  S
Ni201       O203   1.906       .  S
O202       Ni207   1.936       .  S
C204        O205   1.261       .  A
C204        C377   1.469       .  S
O209       Ni215   1.932       .  S
O209        C230   1.271       .  A
O210       Ni233   1.888       .  S
O210        C219   1.264       .  A
O211       Ni215   1.922       .  S
O211       Ni233   1.904       .  S
O211       Ni227   1.918       .  S
O211        H234   0.980       .  S
C212        O229   1.272       .  A
C212        O221   1.279       .  A
C212        C357   1.475   1_554  S
O213       Ni232   1.948       .  S
O213        C219   1.275       .  A
O214       Ni232   1.914       .  S
O214        C216   1.269       .  A
Ni215       O218   1.926       .  S
Ni215       O220   1.897       .  S
C216        O226   1.269       .  A
C216        C477   1.486       .  S
O217       Ni233   1.907       .  S
O217        C223   1.268       .  A
O218        C223   1.274       .  A
C219        C527   1.471       .  S
O220        C222   1.268       .  A
O221       Ni232   1.941       .  S
C222        O228   1.278       .  A
C222        C394   1.494       .  S
C223        C364   1.494       .  S
H224        O225   0.966       .  S
O225       Ni233   1.902       .  S
O225       Ni227   1.896       .  S
O225       Ni232   1.917       .  S
O226       Ni227   1.917       .  S
Ni227       O231   1.891       .  S
Ni227       O229   1.907       .  S
O228       Ni233   1.949       .  S
C230        O231   1.261       .  A
C230        C344   1.464       .  S
O235       Ni241   1.925       .  S
O235        C256   1.269       .  A
O236       Ni259   1.908       .  S
O236        C245   1.271       .  A
O237       Ni241   1.914       .  S
O237       Ni259   1.915       .  S
O237       Ni253   1.921       .  S
O237        H260   0.964       .  S
C238        O255   1.275       .  A
C238        O247   1.281       .  A
C238        C367   1.475       .  S
O239       Ni258   1.947       .  S
O239        C245   1.278       .  A
O240       Ni258   1.916       .  S
O240        C242   1.270       .  A
Ni241       O244   1.915       .  S
Ni241       O246   1.909       .  S
C242        O252   1.274       .  A
C242        C437   1.492       .  S
O243       Ni259   1.930       .  S
O243        C249   1.276       .  A
O244        C249   1.271       .  A
C245        C497   1.497       .  S
O246        C248   1.272       .  A
O247       Ni258   1.940       .  S
C248        O254   1.273       .  A
C248        C374   1.492       .  S
C249        C354   1.482       .  S
H250        O251   0.967       .  S
O251       Ni259   1.899       .  S
O251       Ni253   1.890       .  S
O251       Ni258   1.902       .  S
O252       Ni253   1.934       .  S
Ni253       O257   1.912       .  S
Ni253       O255   1.900       .  S
O254       Ni259   1.935       .  S
C256        O257   1.267       .  A
C256        C334   1.475       .  S
O261       Ni267   1.913       .  S
O261        C282   1.268   1_556  A
O262       Ni285   1.887       .  S
O262        C271   1.266       .  A
O263       Ni267   1.913       .  S
O263       Ni285   1.910       .  S
O263       Ni279   1.931   1_556  S
O263        H286   0.965       .  S
C264        O281   1.279       .  A
C264        O273   1.278       .  A
C264        C324   1.477       .  S
O265       Ni284   1.941   1_556  S
O265        C271   1.276       .  A
O266       Ni284   1.922       .  S
O266        C268   1.272       .  A
Ni267       O270   1.913       .  S
Ni267       O272   1.910       .  S
C268        O278   1.274       .  A
C268        C617   1.497       .  S
O269       Ni285   1.912       .  S
O269        C275   1.271       .  A
O270        C275   1.269       .  A
C271        C504   1.480       .  S
O272        C274   1.272       .  A
O273       Ni284   1.930       .  S
C274        O280   1.271       .  A
C274        C384   1.469       .  S
C275        C314   1.479       .  S
H276        O277   0.967       .  S
O277       Ni285   1.900   1_554  S
O277       Ni279   1.892       .  S
O277       Ni284   1.903       .  S
O278       Ni279   1.933       .  S
Ni279       O283   1.908       .  S
Ni279       O281   1.918       .  S
O280       Ni285   1.924       .  S
C282        O283   1.269       .  A
C282        C347   1.489       .  S
O287       Ni293   1.913       .  S
O287        C308   1.267       .  A
O288       Ni311   1.890       .  S
O288        C297   1.264       .  A
O289       Ni293   1.921       .  S
O289       Ni311   1.916       .  S
O289       Ni305   1.935       .  S
O289        H312   0.966       .  S
C290        O307   1.277       .  A
C290        O299   1.272       .  A
C290        C317   1.492       .  S
O291       Ni310   1.936       .  S
O291        C297   1.272       .  A
O292       Ni310   1.923       .  S
O292        C294   1.275       .  A
Ni293       O296   1.919       .  S
Ni293       O298   1.897       .  S
C294        O304   1.272       .  A
C294        C577   1.485       .  S
O295       Ni311   1.908       .  S
O295        C301   1.266       .  A
O296        C301   1.269       .  A
C297        C537   1.488       .  S
O298        C300   1.269       .  A
O299       Ni310   1.916       .  S
C300        O306   1.279       .  A
C300        C407   1.477       .  S
C301        C327   1.480       .  S
H302        O303   0.965       .  S
O303       Ni311   1.904       .  S
O303       Ni305   1.904       .  S
O303       Ni310   1.919       .  S
O304       Ni305   1.921       .  S
Ni305       O309   1.919       .  S
Ni305       O307   1.917       .  S
O306       Ni311   1.952       .  S
C308        O309   1.271       .  A
C308        C337   1.490       .  S
C313        C314   1.415       .  A
C313        C318   1.409       .  A
C313       Br320   1.935       .  S
C314        C315   1.405       .  A
C315        C316   1.406       .  A
C315       Br322   1.938       .  S
C316        C317   1.426       .  A
C316       Br321   1.939       .  S
C317        C318   1.415       .  A
C318       Br319   1.936       .  S
C323        C324   1.410       .  A
C323        C328   1.408       .  A
C323       Br330   1.932       .  S
C324        C325   1.409       .  A
C325        C326   1.407       .  A
C325       Br332   1.927       .  S
C326        C327   1.411       .  A
C326       Br331   1.932       .  S
C327        C328   1.415       .  A
C328       Br329   1.932       .  S
C333        C334   1.408       .  A
C333        C338   1.412       .  A
C333       Br340   1.928       .  S
C334        C335   1.405       .  A
C335        C336   1.407       .  A
C335       Br342   1.932       .  S
C336        C337   1.420       .  A
C336       Br341   1.937       .  S
C337        C338   1.414       .  A
C338       Br339   1.927       .  S
C343        C344   1.403       .  A
C343        C348   1.409       .  A
C343       Br350   1.930       .  S
C344        C345   1.403       .  A
C345        C346   1.401       .  A
C345       Br352   1.935       .  S
C346        C347   1.424       .  A
C346       Br351   1.938       .  S
C347        C348   1.420       .  A
C348       Br349   1.929       .  S
C353        C354   1.412       .  A
C353        C358   1.410       .  A
C353       Br360   1.931       .  S
C354        C355   1.412       .  A
C355        C356   1.407       .  A
C355       Br362   1.926       .  S
C356        C357   1.405       .  A
C356       Br361   1.929       .  S
C357        C358   1.411       .  A
C358       Br359   1.929       .  S
C363        C364   1.424       .  A
C363        C368   1.409       .  A
C363       Br370   1.931       .  S
C364        C365   1.418       .  A
C365        C366   1.406       .  A
C365       Br372   1.936       .  S
C366        C367   1.409       .  A
C366       Br371   1.936       .  S
C367        C368   1.406       .  A
C368       Br369   1.936       .  S
C373        C374   1.416       .  A
C373        C378   1.403       .  A
C373       Br380   1.931       .  S
C374        C375   1.417       .  A
C375        C376   1.411       .  A
C375       Br382   1.929       .  S
C376        C377   1.406       .  A
C376       Br381   1.928       .  S
C377        C378   1.404       .  A
C378       Br379   1.932       .  S
C383        C384   1.400       .  A
C383        C388   1.401       .  A
C383       Br390   1.930   1_556  S
C384        C385   1.410       .  A
C385        C386   1.412       .  A
C385       Br392   1.928       .  S
C386        C387   1.412       .  A
C386       Br391   1.928       .  S
C387        C388   1.415       .  A
C388       Br389   1.931   1_556  S
C393        C394   1.416       .  A
C393        C398   1.412       .  A
C393       Br400   1.923       .  S
C394        C395   1.418       .  A
C395        C396   1.404       .  A
C395       Br402   1.926       .  S
C396        C397   1.405       .  A
C396       Br401   1.931       .  S
C397        C398   1.407       .  A
C398       Br399   1.928       .  S
C403        C404   1.414       .  A
C403        C408   1.412       .  A
C403       Br410   1.925       .  S
C404        C405   1.406       .  A
C405        C406   1.405       .  A
C405       Br412   1.930       .  S
C406        C407   1.411       .  A
C406       Br411   1.926       .  S
C407        C408   1.408       .  A
C408       Br409   1.928       .  S
C413        C414   1.412       .  A
C413        C418   1.406       .  A
C413       Br420   1.936       .  S
C414        C415   1.414       .  A
C415        C416   1.410       .  A
C415       Br422   1.933       .  S
C416        C417   1.417       .  A
C416       Br421   1.936       .  S
C417        C418   1.415       .  A
C418       Br419   1.931       .  S
C423        C424   1.410       .  A
C423        C428   1.409       .  A
C423       Br430   1.930       .  S
C424        C425   1.404       .  A
C425        C426   1.407       .  A
C425       Br432   1.932       .  S
C426        C427   1.419       .  A
C426       Br431   1.931       .  S
C427        C428   1.415       .  A
C428       Br429   1.933       .  S
C433        C434   1.410       .  A
C433        C438   1.418   1_455  A
C433       Br440   1.929       .  S
C434        C435   1.421       .  A
C435        C436   1.407       .  A
C435       Br442   1.929       .  S
C436        C437   1.407   1_455  A
C436       Br441   1.935   1_455  S
C437        C438   1.420       .  A
C438       Br439   1.930       .  S
C443        C444   1.413       .  A
C443        C448   1.412       .  A
C443       Br450   1.932       .  S
C444        C445   1.416       .  A
C445        C446   1.410       .  A
C445       Br452   1.934       .  S
C446        C447   1.412       .  A
C446       Br451   1.933       .  S
C447        C448   1.413       .  A
C448       Br449   1.931       .  S
C453        C454   1.411       .  A
C453        C458   1.407       .  A
C453       Br460   1.938       .  S
C454        C455   1.420       .  A
C455        C456   1.407       .  A
C455       Br462   1.941       .  S
C456        C457   1.414       .  A
C456       Br461   1.937       .  S
C457        C458   1.424       .  A
C458       Br459   1.939       .  S
C463        C464   1.404       .  A
C463        C468   1.409       .  A
C463       Br470   1.932       .  S
C464        C465   1.412       .  A
C465        C466   1.407       .  A
C465       Br472   1.930       .  S
C466        C467   1.413       .  A
C466       Br471   1.936       .  S
C467        C468   1.423       .  A
C468       Br469   1.934       .  S
C473        C474   1.420       .  A
C473        C478   1.405       .  A
C473       Br480   1.936       .  S
C474        C475   1.411       .  A
C475        C476   1.413   1_455  A
C475       Br482   1.931   1_554  S
C476        C477   1.419       .  A
C476       Br481   1.933       .  S
C477        C478   1.410   1_655  A
C478       Br479   1.936   1_455  S
C483        C484   1.410       .  A
C483        C488   1.407       .  A
C483       Br490   1.936       .  S
C484        C485   1.409       .  A
C485        C486   1.411       .  A
C485       Br492   1.931       .  S
C486        C487   1.417       .  A
C486       Br491   1.932       .  S
C487        C488   1.417       .  A
C488       Br489   1.935       .  S
C493        C494   1.411       .  A
C493        C498   1.409       .  A
C493       Br500   1.934       .  S
C494        C495   1.406       .  A
C495        C496   1.412   1_565  A
C495       Br502   1.929       .  S
C496        C497   1.420       .  A
C496       Br501   1.930       .  S
C497        C498   1.419   1_545  A
C498       Br499   1.936       .  S
C503        C504   1.412       .  A
C503        C508   1.410       .  A
C503       Br510   1.932       .  S
C504        C505   1.412       .  A
C505        C506   1.404       .  A
C505       Br512   1.937       .  S
C506        C507   1.416       .  A
C506       Br511   1.937       .  S
C507        C508   1.415       .  A
C508       Br509   1.932       .  S
C513        C514   1.409       .  A
C513        C518   1.411       .  A
C513       Br520   1.926       .  S
C514        C515   1.400       .  A
C515        C516   1.401       .  A
C515       Br522   1.928       .  S
C516        C517   1.410       .  A
C516       Br521   1.915       .  S
C517        C518   1.411       .  A
C518       Br519   1.927   1_556  S
C523        C524   1.416       .  A
C523        C528   1.418   1_565  A
C523       Br530   1.926       .  S
C524        C525   1.420       .  A
C525        C526   1.400       .  A
C525       Br532   1.924       .  S
C526        C527   1.399   1_565  A
C526       Br531   1.939   1_565  S
C527        C528   1.410       .  A
C528       Br529   1.927       .  S
C533        C534   1.409       .  A
C533        C538   1.404       .  A
C533       Br540   1.923       .  S
C534        C535   1.409       .  A
C535        C536   1.413       .  A
C535       Br542   1.931       .  S
C536        C537   1.417       .  A
C536       Br541   1.929       .  S
C537        C538   1.416       .  A
C538       Br539   1.942       .  S
C543        C544   1.417       .  A
C543        C548   1.419       .  A
C543       Br550   1.929       .  S
C544        C545   1.422       .  A
C545        C546   1.396       .  A
C545       Br552   1.941       .  S
C546        C547   1.413       .  A
C546       Br551   1.943       .  S
C547        C548   1.412       .  A
C548       Br549   1.917       .  S
C553        C554   1.412       .  A
C553        C558   1.410       .  A
C553       Br560   1.932       .  S
C554        C555   1.409       .  A
C555        C556   1.407       .  A
C555       Br562   1.933       .  S
C556        C557   1.413       .  A
C556       Br561   1.932       .  S
C557        C558   1.413       .  A
C558       Br559   1.931       .  S
C563        C564   1.420       .  A
C563        C568   1.407       .  A
C563       Br570   1.936       .  S
C564        C565   1.409       .  A
C565        C566   1.407       .  A
C565       Br572   1.934       .  S
C566        C567   1.419       .  A
C566       Br571   1.936       .  S
C567        C568   1.407       .  A
C568       Br569   1.936       .  S
C573        C574   1.408       .  A
C573        C578   1.407   1_455  A
C573       Br580   1.932       .  S
C574        C575   1.416       .  A
C575        C576   1.412   1_455  A
C575       Br582   1.931       .  S
C576        C577   1.410       .  A
C576       Br581   1.931       .  S
C577        C578   1.417       .  A
C578       Br579   1.931       .  S
C583        C584   1.416       .  A
C583        C588   1.414   1_565  A
C583       Br590   1.930       .  S
C584        C585   1.415       .  A
C585        C586   1.407   1_565  A
C585       Br592   1.936       .  S
C586        C587   1.409       .  A
C586       Br591   1.930       .  S
C587        C588   1.408       .  A
C588       Br589   1.928       .  S
C593        C594   1.416       .  A
C593        C598   1.407       .  A
C593       Br600   1.924       .  S
C594        C595   1.416       .  A
C595        C596   1.412       .  A
C595       Br602   1.931       .  S
C596        C597   1.408       .  A
C596       Br601   1.929       .  S
C597        C598   1.405       .  A
C598       Br599   1.930       .  S
C603        C604   1.413       .  A
C603        C608   1.412       .  A
C603       Br610   1.929       .  S
C604        C605   1.407       .  A
C605        C606   1.395       .  A
C605       Br612   1.925       .  S
C606        C607   1.400       .  A
C606       Br611   1.928       .  S
C607        C608   1.408       .  A
C608       Br609   1.924       .  S
C613        C614   1.412       .  A
C613        C618   1.415   1_455  A
C613       Br620   1.932       .  S
C614        C615   1.422       .  A
C615        C616   1.412       .  A
C615       Br622   1.936       .  S
C616        C617   1.412   1_455  A
C616       Br621   1.935   1_454  S
C617        C618   1.419       .  A
C618       Br619   1.932       .  S
C623        C624   1.411       .  A
C623        C628   1.418   1_565  A
C623       Br630   1.932       .  S
C624        C625   1.415       .  A
C625        C626   1.404   1_565  A
C625       Br632   1.941       .  S
C626        C627   1.419       .  A
C626       Br631   1.938       .  S
C627        C628   1.425       .  A
C628       Br629   1.933       .  S
C633        C634   1.407       .  A
C633        C638   1.407       .  A
C633       Br640   1.924       .  S
C634        C635   1.407       .  A
C635        C636   1.414       .  A
C635       Br642   1.927       .  S
C636        C637   1.418       .  A
C636       Br641   1.921       .  S
C637        C638   1.418       .  A
C638       Br639   1.936       .  S
C643        C644   1.407       .  A
C643        C648   1.401       .  A
C643       Br650   1.935       .  S
C644        C645   1.410       .  A
C645        C646   1.408       .  A
C645       Br652   1.929       .  S
C646        C647   1.409       .  A
C646       Br651   1.929       .  S
C647        C648   1.410       .  A
C648       Br649   1.930       .  S
C653        C654   1.402       .  A
C653        C658   1.406       .  A
C653       Br660   1.935       .  S
C654        C655   1.411       .  A
C655        C656   1.410       .  A
C655       Br662   1.932       .  S
C656        C657   1.415       .  A
C656       Br661   1.933       .  S
C657        C658   1.425       .  A
C658       Br659   1.937       .  S
C663        C664   1.418       .  A
C663        C668   1.412       .  A
C663       Br670   1.936       .  S
C664        C665   1.416       .  A
C665        C666   1.410       .  A
C665       Br672   1.935       .  S
C666        C667   1.414       .  A
C666       Br671   1.934       .  S
C667        C668   1.417       .  A
C668       Br669   1.935       .  S
