geometry optimzed in LAMMPS
_audit_creation_date              2020-11-30 
_audit_creation_method            'lammps2cif' 
_symmetry_space_group_name_H-M    'P1' 
_symmetry_Int_Tables_number       1 
_symmetry_cell_setting            triclinic 
loop_ 
_symmetry_equiv_pos_as_xyz 
  x,y,z 
_cell_length_a                    34.79218302 
_cell_length_b                    34.79190668412674 
_cell_length_c                    25.285812322437934 
_cell_angle_alpha                 89.81029569984783 
_cell_angle_beta                  89.95790582097713 
_cell_angle_gamma                 90.23134639686441 
loop_ 
_atom_site_label 
_atom_site_type_symbol 
_atom_site_fract_x 
_atom_site_fract_y 
_atom_site_fract_z 
_atom_site_charge 
N1          N  0.46278396  0.82655818  0.05173833    -0.36800
N2          N  0.54645526  0.82589421  0.05116342    -0.57300
N3          N  0.54532490  0.83134387  0.93651311    -0.36800
N4          N  0.46156810  0.82790971  0.93737727    -0.57300
C5          C  0.47021553  0.81733606  0.10267718     0.26800
C6          C  0.42545996  0.81786449  0.04249835     0.26800
C7          C  0.58284787  0.82322164  0.94504570     0.26800
C8          C  0.53793917  0.82413868  0.88494373     0.26800
C9          C  0.54020667  0.83201354  0.10325328     0.35400
C10         C  0.58392708  0.83412345  0.04214720     0.35400
C11         C  0.42384241  0.83398458  0.94676608     0.35400
C12         C  0.46747209  0.83613614  0.88576444     0.35400
C13         C  0.43724909  0.80263300  0.12618832    -0.22100
C14         C  0.40901808  0.80279385  0.08810323    -0.22100
C15         C  0.59950758  0.81090075  0.89825026    -0.22100
C16         C  0.57119255  0.81155932  0.86030794    -0.22100
C17         C  0.57389728  0.84383613  0.12755763    -0.23100
C18         C  0.60158116  0.84529190  0.08880448    -0.23100
C19         C  0.40568200  0.84600789  0.90083937    -0.23100
C20         C  0.43333380  0.84723375  0.86210960    -0.23100
C21         C  0.50495419  0.82515972  0.12958603    -0.16900
C22         C  0.40519958  0.82624249  0.99536045    -0.18500
C23         C  0.50259562  0.83074015  0.85884920    -0.18500
C24         C  0.60292619  0.82889257  0.99314760    -0.18500
H25         H  0.43373143  0.79341041  0.16683743     0.14400
H26         H  0.37950652  0.79369858  0.09372148     0.14400
H27         H  0.62908697  0.80255664  0.89194698     0.14400
H28         H  0.57475886  0.80386715  0.81915495     0.14400
H29         H  0.57813123  0.85053694  0.16892015     0.12700
H30         H  0.63138916  0.85326584  0.09445570     0.12700
H31         H  0.37558941  0.85277296  0.89558690     0.12700
H32         H  0.42876122  0.85497669  0.82110494     0.12700
H33         H  0.48062243  0.84261934  0.02711908     0.26000
H34         H  0.52702063  0.84515891  0.96271295     0.26000
N35         N  0.54318169  0.82930956  0.43686714    -0.36800
N36         N  0.54395414  0.83374887  0.55156676    -0.57300
N37         N  0.46047789  0.82873760  0.55211158    -0.36800
N38         N  0.45951259  0.82870433  0.43728816    -0.57300
C39         C  0.58063019  0.83781968  0.44546083     0.26800
C40         C  0.53601788  0.83582860  0.38504073     0.26800
C41         C  0.46748120  0.83886618  0.60282628     0.26800
C42         C  0.42287226  0.83570546  0.54258631     0.26800
C43         C  0.58177857  0.82776202  0.54297431     0.35400
C44         C  0.53806274  0.82818597  0.60385444     0.35400
C45         C  0.46576064  0.82158338  0.38545415     0.35400
C46         C  0.42206067  0.82056903  0.44660738     0.35400
C47         C  0.59757369  0.84964987  0.39846625    -0.22100
C48         C  0.56940134  0.84842989  0.36032341    -0.22100
C49         C  0.43396080  0.85224152  0.62586766    -0.22100
C50         C  0.40582602  0.85037281  0.58779539    -0.22100
C51         C  0.60006722  0.81873670  0.59007540    -0.23100
C52         C  0.57232052  0.81896925  0.62869631    -0.23100
C53         C  0.43208179  0.80919531  0.36163303    -0.23100
C54         C  0.40442511  0.80841136  0.40042097    -0.23100
C55         C  0.60044349  0.83267261  0.49378164    -0.18500
C56         C  0.50097946  0.82786188  0.35875564    -0.18500
C57         C  0.40302356  0.82669510  0.49533535    -0.18500
C58         C  0.50265240  0.83391900  0.62989392    -0.18500
H59         H  0.62728643  0.85779391  0.39214208     0.14400
H60         H  0.57323797  0.85540984  0.31890134     0.14400
H61         H  0.43010218  0.86202361  0.66610937     0.14400
H62         H  0.37606009  0.85843040  0.59305603     0.14400
H63         H  0.63029091  0.81289189  0.59604306     0.12700
H64         H  0.57691299  0.81341487  0.67035373     0.12700
H65         H  0.42785432  0.80160449  0.32056304     0.12700
H66         H  0.37465308  0.80019135  0.39507555     0.12700
H67         H  0.52495612  0.81538176  0.46321899     0.26000
H68         H  0.47898726  0.81358683  0.52767127     0.26000
N69         N  0.84228520  0.45375091  0.05909902    -0.36800
N70         N  0.84137452  0.45182355  0.94421959    -0.57300
N71         N  0.84056726  0.53527100  0.94185095    -0.36800
N72         N  0.84527544  0.53725364  0.05635014    -0.57300
C73         C  0.85089988  0.41640082  0.05019352     0.26800
C74         C  0.85208577  0.46162898  0.10972015     0.26800
C75         C  0.84743368  0.52727977  0.89040804     0.26800
C76         C  0.85070017  0.57239048  0.94968951     0.26800
C77         C  0.83413947  0.41436788  0.95472472     0.35400
C78         C  0.83242634  0.45750052  0.89276808     0.35400
C79         C  0.83961701  0.53195803  0.10873326     0.35400
C80         C  0.83959778  0.57502689  0.04670065     0.35400
C81         C  0.86627307  0.40037095  0.09577283    -0.22100
C82         C  0.86688250  0.42888174  0.13339995    -0.22100
C83         C  0.86188870  0.55971040  0.86518813    -0.22100
C84         C  0.86402677  0.58817664  0.90265098    -0.22100
C85         C  0.82048483  0.39619970  0.90972770    -0.23100
C86         C  0.81955148  0.42353360  0.87038480    -0.23100
C87         C  0.83040447  0.56654499  0.13257169    -0.23100
C88         C  0.83033195  0.59385818  0.09320324    -0.23100
C89         C  0.84279006  0.39584691  0.00316844    -0.18500
C90         C  0.84614955  0.49702617  0.13585280    -0.18500
C91         C  0.84580414  0.59308236  0.99723676    -0.18500
C92         C  0.83854778  0.49226356  0.86494560    -0.18500
H93         H  0.87568843  0.37104427  0.10152991     0.14400
H94         H  0.87692473  0.42580789  0.17369554     0.14400
H95         H  0.86973013  0.56267743  0.82393834     0.14400
H96         H  0.87387877  0.61732703  0.89586059     0.14400
H97         H  0.81265580  0.36623768  0.90544227     0.12700
H98         H  0.81085446  0.41886260  0.82981508     0.12700
H99         H  0.82505136  0.57168651  0.17412020     0.12700
H100        H  0.82481558  0.62420390  0.09839707     0.12700
H101        H  0.82656589  0.47154294  0.03417109     0.26000
H102        H  0.82556720  0.51784897  0.96827513     0.26000
N103        N  0.84494684  0.53964911  0.55819453    -0.36800
N104        N  0.85110004  0.54105818  0.44329865    -0.57300
N105        N  0.84579024  0.45799260  0.44253393    -0.36800
N106        N  0.84335180  0.45638042  0.55704742    -0.57300
C107        C  0.85527364  0.57668855  0.54967162     0.26800
C108        C  0.85122175  0.53185369  0.60995426     0.26800
C109        C  0.85612710  0.46530113  0.39194368     0.26800
C110        C  0.85346940  0.42057353  0.45223171     0.26800
C111        C  0.84456661  0.57868487  0.45250193     0.35400
C112        C  0.84423296  0.53540610  0.39129270     0.35400
C113        C  0.83453679  0.46238106  0.60837433     0.35400
C114        C  0.83510287  0.41914693  0.54704099     0.35400
C115        C  0.86813011  0.59271136  0.59661420    -0.22100
C116        C  0.86559444  0.56438367  0.63469337    -0.22100
C117        C  0.87059356  0.43221331  0.36911861    -0.22100
C118        C  0.86915167  0.40397191  0.40735335    -0.22100
C119        C  0.83386019  0.59704977  0.40606261    -0.23100
C120        C  0.83368041  0.56957821  0.36721763    -0.23100
C121        C  0.82069740  0.42879551  0.63119702    -0.23100
C122        C  0.82093573  0.40138292  0.59222803    -0.23100
C123        C  0.85050294  0.59706663  0.50158345    -0.18500
C124        C  0.84213559  0.49683618  0.63585952    -0.18500
C125        C  0.84322211  0.40041788  0.49883950    -0.18500
C126        C  0.84958019  0.50019556  0.36486194    -0.18500
H127        H  0.87784259  0.62193339  0.60290145     0.14400
H128        H  0.87303472  0.56752334  0.67601653     0.14400
H129        H  0.88050567  0.42865924  0.32885037     0.14400
H130        H  0.87765619  0.37432679  0.40223690     0.14400
H131        H  0.82712903  0.62714625  0.40064365     0.12700
H132        H  0.82682486  0.57426098  0.32595632     0.12700
H133        H  0.81195125  0.42437455  0.67186202     0.12700
H134        H  0.81230991  0.37164202  0.59689076     0.12700
H135        H  0.83016505  0.52224183  0.53176217     0.26000
H136        H  0.82959114  0.47600357  0.46643800     0.26000
N137        N  0.45414558  0.15238664  0.06249095    -0.36800
N138        N  0.45377836  0.15224653  0.94729531    -0.57300
N139        N  0.53758523  0.14458155  0.94732441    -0.36800
N140        N  0.53816853  0.14964963  0.06238146    -0.57300
C141        C  0.41668124  0.16040033  0.05343370     0.26800
C142        C  0.46111297  0.15920640  0.11421851     0.26800
C143        C  0.53110167  0.14954816  0.89495384     0.26800
C144        C  0.57578874  0.14914962  0.95558516     0.26800
C145        C  0.41552373  0.14918944  0.95592926     0.35400
C146        C  0.45935782  0.14470243  0.89545096     0.35400
C147        C  0.53225189  0.14806600  0.11519724     0.35400
C148        C  0.57632589  0.14495139  0.05464822     0.35400
C149        C  0.39948222  0.17203499  0.10018894    -0.22100
C150        C  0.42748252  0.17125307  0.13853818    -0.22100
C151        C  0.56570886  0.15648196  0.86940493    -0.22100
C152        C  0.59384747  0.15587273  0.90739553    -0.22100
C153        C  0.39673176  0.14022199  0.90922610    -0.23100
C154        C  0.42447953  0.13732281  0.87097488    -0.23100
C155        C  0.56688763  0.14268282  0.14120360    -0.23100
C156        C  0.59479345  0.14111015  0.10297841    -0.23100
C157        C  0.39696970  0.15557503  0.00489575    -0.18500
C158        C  0.49652596  0.15376393  0.14079923    -0.18500
C159        C  0.59514657  0.14636482  0.00493178    -0.18500
C160        C  0.49513177  0.14658100  0.86894558    -0.18500
H161        H  0.36977130  0.18007674  0.10612358     0.14400
H162        H  0.42349672  0.17870962  0.17970594     0.14400
H163        H  0.57035533  0.16129630  0.82757352     0.14400
H164        H  0.62420484  0.15986790  0.89988916     0.14400
H165        H  0.36619023  0.13614475  0.90325873     0.12700
H166        H  0.41949803  0.13069324  0.82974945     0.12700
H167        H  0.57172729  0.14090768  0.18342067     0.12700
H168        H  0.62525747  0.13794134  0.11022621     0.12700
H169        H  0.47277114  0.13898224  0.03633832     0.26000
H170        H  0.51760926  0.13505460  0.97485665     0.26000
N171        N  0.53812772  0.14556316  0.56230821    -0.36800
N172        N  0.53901866  0.15214354  0.44786502    -0.57300
N173        N  0.45539500  0.14747053  0.44707939    -0.36800
N174        N  0.45450581  0.14493801  0.56151180    -0.57300
C175        C  0.57516076  0.15590514  0.55371872     0.26800
C176        C  0.53041456  0.15214388  0.61393116     0.26800
C177        C  0.46244941  0.15705717  0.39612879     0.26800
C178        C  0.41770868  0.15415976  0.45638350     0.26800
C179        C  0.57681138  0.14589806  0.45656301     0.35400
C180        C  0.53314829  0.14642951  0.39565910     0.35400
C181        C  0.46059453  0.13662543  0.61300969     0.35400
C182        C  0.41694477  0.13776128  0.55217775     0.35400
C183        C  0.59124011  0.16899772  0.60050584    -0.22100
C184        C  0.56299960  0.16655573  0.63856376    -0.22100
C185        C  0.42879606  0.16967561  0.37253062    -0.22100
C186        C  0.40056452  0.16799306  0.41064994    -0.22100
C187        C  0.59505225  0.13643166  0.40965533    -0.23100
C188        C  0.56736430  0.13683180  0.37100280    -0.23100
C189        C  0.42676512  0.12422429  0.63660852    -0.23100
C190        C  0.39908240  0.12485023  0.59797444    -0.23100
C191        C  0.59544954  0.15118051  0.50564738    -0.18500
C192        C  0.49547345  0.14324671  0.63995234    -0.18500
C193        C  0.39797601  0.14580577  0.50405515    -0.18500
C194        C  0.49775302  0.15187111  0.36945153    -0.18500
H195        H  0.62045167  0.17877847  0.60673817     0.14400
H196        H  0.56622122  0.17413415  0.67981117     0.14400
H197        H  0.42489076  0.17871715  0.33189112     0.14400
H198        H  0.37069323  0.17556426  0.40508061     0.14400
H199        H  0.62520751  0.13020250  0.40381449     0.12700
H200        H  0.57193180  0.13097747  0.32945781     0.12700
H201        H  0.42237689  0.11617313  0.67756311     0.12700
H202        H  0.36909665  0.11736081  0.60323996     0.12700
H203        H  0.52062083  0.13061051  0.53613293     0.26000
H204        H  0.47409323  0.13282805  0.47189782     0.26000
N205        N  0.14422761  0.44420851  0.94133209    -0.36800
N206        N  0.14483546  0.52772981  0.94126266    -0.57300
N207        N  0.14511335  0.52764026  0.05576981    -0.36800
N208        N  0.14725229  0.44413989  0.05558043    -0.57300
C209        C  0.15364643  0.45190244  0.89044863     0.26800
C210        C  0.15407561  0.40726930  0.95127146     0.26800
C211        C  0.15427026  0.56474549  0.04542119     0.26800
C212        C  0.15602660  0.52021136  0.10610643     0.26800
C213        C  0.13743861  0.52133451  0.88959213     0.35400
C214        C  0.13738792  0.56524582  0.95016907     0.35400
C215        C  0.13955128  0.40657658  0.04716886     0.35400
C216        C  0.14101646  0.45049031  0.10752848     0.35400
C217        C  0.16966413  0.41945017  0.86772240    -0.22100
C218        C  0.16988582  0.39123447  0.90614597    -0.22100
C219        C  0.17091021  0.58114423  0.08983171    -0.22100
C220        C  0.17197353  0.55302722  0.12817005    -0.22100
C221        C  0.12492215  0.55489119  0.86554561    -0.23100
C222        C  0.12482648  0.58274721  0.90402216    -0.23100
C223        C  0.12808724  0.38902150  0.09390849    -0.23100
C224        C  0.12910316  0.41689307  0.13225844    -0.23100
C225        C  0.14533231  0.48650472  0.86316430    -0.18500
C226        C  0.14708395  0.38730525  0.99923626    -0.18500
C227        C  0.14978727  0.48526227  0.13352796    -0.18500
C228        C  0.14636147  0.58455745  0.99772571    -0.18500
H229        H  0.17959732  0.41626373  0.82740351     0.14400
H230        H  0.18015988  0.36213762  0.90128264     0.14400
H231        H  0.18115868  0.61036687  0.09426083     0.14400
H232        H  0.18307669  0.55641416  0.16786509     0.14400
H233        H  0.11753672  0.55907004  0.82435691     0.12700
H234        H  0.11754990  0.61269443  0.89833942     0.12700
H235        H  0.12088956  0.35904225  0.10002694     0.12700
H236        H  0.12276653  0.41271498  0.17379856     0.12700
H237        H  0.12787727  0.46167401  0.96586710     0.26000
H238        H  0.12866793  0.50969252  0.03188371     0.26000
N239        N  0.15581963  0.52608065  0.44062241    -0.36800
N240        N  0.15675044  0.44277739  0.44088980    -0.57300
N241        N  0.15157550  0.44337075  0.55565088    -0.36800
N242        N  0.15408308  0.52675318  0.55511036    -0.57300
C243        C  0.16546712  0.51868674  0.38985604     0.26800
C244        C  0.16554161  0.56305729  0.45049090     0.26800
C245        C  0.16104313  0.40627101  0.54658559     0.26800
C246        C  0.15912044  0.45069334  0.60716427     0.26800
C247        C  0.15013334  0.44904735  0.38892147     0.35400
C248        C  0.14915520  0.40519743  0.44980873     0.35400
C249        C  0.14768004  0.56441309  0.54549023     0.35400
C250        C  0.14499901  0.52055612  0.60640503     0.35400
C251        C  0.18156550  0.55127172  0.36708329    -0.22100
C252        C  0.18188882  0.57924071  0.40551410    -0.22100
C253        C  0.17467117  0.38980479  0.59289827    -0.22100
C254        C  0.17339246  0.41783454  0.63117133    -0.22100
C255        C  0.13844668  0.41529978  0.36467106    -0.23100
C256        C  0.13790422  0.38746569  0.40327916    -0.23100
C257        C  0.13436287  0.58222567  0.59088889    -0.23100
C258        C  0.13268542  0.55440697  0.62952890    -0.23100
C259        C  0.15699218  0.48427779  0.36260618    -0.18500
C260        C  0.15670229  0.58331839  0.49742866    -0.18500
C261        C  0.15132926  0.48560890  0.63361267    -0.18500
C262        C  0.15485440  0.38624317  0.49865251    -0.18500
H263        H  0.19145602  0.55468540  0.32673703     0.14400
H264        H  0.19199844  0.60848311  0.40045737     0.14400
H265        H  0.18403184  0.36046542  0.59869875     0.14400
H266        H  0.18172191  0.41432160  0.67213093     0.14400
H267        H  0.13141990  0.41105869  0.32340556     0.12700
H268        H  0.13032204  0.35755825  0.39766023     0.12700
H269        H  0.12714746  0.61222238  0.59589548     0.12700
H270        H  0.12413242  0.55875220  0.67022947     0.12700
H271        H  0.13889985  0.50856742  0.46464421     0.26000
H272        H  0.13661525  0.46122467  0.52989720     0.26000
O273        O  0.84652154  0.77665771  0.03562528    -0.73100
O274        O  0.84475746  0.89166854  0.03876638    -0.74100
O275        O  0.78762443  0.83293879  0.03621731    -0.62700
O276        O  0.90317537  0.83496853  0.03738131    -0.71100
O277        O  0.90348647  0.83464434  0.94963921    -0.70700
O278        O  0.78809061  0.83651156  0.94855288    -0.61900
O279        O  0.84679860  0.89337578  0.95114851    -0.74400
O280        O  0.84471190  0.77778972  0.94781467    -0.73200
Cu281      Cu  0.84549240  0.83403464  0.04003776     1.04600
Cu282      Cu  0.84581629  0.83564949  0.94619756     1.04300
C283        C  0.84555904  0.75910247  0.99141234     0.93100
C284        C  0.84591006  0.91079582  0.99557425     0.92200
C285        C  0.76964009  0.83478094  0.99219711     0.84400
C286        C  0.92155547  0.83484833  0.99360953     0.90600
O287        O  0.84190151  0.89737850  0.45886600    -0.73100
O288        O  0.84481409  0.78151881  0.45579597    -0.74100
O289        O  0.78571450  0.83779991  0.45360811    -0.62700
O290        O  0.90083202  0.84028429  0.45949204    -0.71100
O291        O  0.89894889  0.83698555  0.54708205    -0.70700
O292        O  0.78310523  0.84003188  0.54131511    -0.61900
O293        O  0.83945361  0.78077202  0.54331844    -0.74400
O294        O  0.84259240  0.89594199  0.54628292    -0.73200
Cu295      Cu  0.84339793  0.83938599  0.45387978     1.04600
Cu296      Cu  0.84094470  0.83840026  0.54755851     1.04300
C297        C  0.84165971  0.91508462  0.50321239     0.93100
C298        C  0.84227348  0.76297634  0.49939348     0.92200
C299        C  0.76628219  0.83897026  0.49638766     0.84400
C300        C  0.91813547  0.83818377  0.50392484     0.90600
O301        O  0.83702589  0.21019023  0.04978101    -0.73100
O302        O  0.83575968  0.09453289  0.04645029    -0.74100
O303        O  0.89407978  0.15155309  0.04922088    -0.62700
O304        O  0.77870839  0.15268444  0.04698285    -0.71100
O305        O  0.77962570  0.15412817  0.95913071    -0.70700
O306        O  0.89480148  0.15303386  0.96159888    -0.61900
O307        O  0.83669667  0.09596096  0.95880813    -0.74400
O308        O  0.83817681  0.21146001  0.96203691    -0.73200
Cu309      Cu  0.83634024  0.15222973  0.05117980     1.04600
Cu310      Cu  0.83733255  0.15374003  0.95735648     1.04300
C311        C  0.83759696  0.22906865  0.00631986     0.93100
C312        C  0.83606811  0.07694980  0.00215685     0.92200
C313        C  0.91272636  0.15200520  0.00567089     0.84400
C314        C  0.76107229  0.15363209  0.00272568     0.90600
O315        O  0.83756954  0.21592295  0.45448931    -0.73100
O316        O  0.83563109  0.10071676  0.45665964    -0.74100
O317        O  0.77862228  0.15937839  0.45906423    -0.62700
O318        O  0.89426007  0.15723901  0.45246932    -0.71100
O319        O  0.89656767  0.15839707  0.53997599    -0.70700
O320        O  0.78123505  0.15811381  0.54679064    -0.61900
O321        O  0.83942681  0.10075880  0.54403629    -0.74400
O322        O  0.83977454  0.21627671  0.54224091    -0.73200
Cu323      Cu  0.83632140  0.15832880  0.45264823     1.04600
Cu324      Cu  0.83919120  0.15848627  0.54633030     1.04300
C325        C  0.83967851  0.23424816  0.49805366     0.93100
C326        C  0.83850352  0.08239866  0.50032626     0.92200
C327        C  0.76175197  0.15881531  0.50398167     0.84400
C328        C  0.91374318  0.15739214  0.49530913     0.90600
O329        O  0.15373606  0.20172916  0.04634845    -0.73100
O330        O  0.15731779  0.08571717  0.04044393    -0.74100
O331        O  0.21305604  0.14532095  0.04313515    -0.62700
O332        O  0.09772565  0.14190499  0.04449257    -0.71100
O333        O  0.09710918  0.14317457  0.95692872    -0.70700
O334        O  0.21270240  0.14986942  0.95549638    -0.61900
O335        O  0.15774077  0.08861786  0.95284529    -0.74400
O336        O  0.15116410  0.20372425  0.95865042    -0.73200
Cu337      Cu  0.15549125  0.14355484  0.04669007     1.04600
Cu338      Cu  0.15471844  0.14637539  0.95296338     1.04300
C339        C  0.15114327  0.22087204  0.00320837     0.93100
C340        C  0.15808052  0.06887714  0.99554288     0.92200
C341        C  0.23102775  0.14824340  0.99926347     0.84400
C342        C  0.07907454  0.14212515  0.00094573     0.90600
O343        O  0.15994452  0.20127891  0.45599595    -0.73100
O344        O  0.15433071  0.08571115  0.45934561    -0.74100
O345        O  0.09931401  0.14556039  0.45497293    -0.62700
O346        O  0.21457524  0.14072939  0.45967054    -0.71100
O347        O  0.21302243  0.14414764  0.54733994    -0.70700
O348        O  0.09766258  0.14518320  0.54253218    -0.61900
O349        O  0.15437034  0.08680221  0.54702631    -0.74400
O350        O  0.15593602  0.20206783  0.54363027    -0.73200
Cu351      Cu  0.15711546  0.14330817  0.45441141     1.04600
Cu352      Cu  0.15520343  0.14458457  0.54816573     1.04300
C353        C  0.15852290  0.21984720  0.49952375     0.93100
C354        C  0.15348666  0.06800708  0.50370537     0.92200
C355        C  0.08014589  0.14537748  0.49812645     0.84400
C356        C  0.23193017  0.14187643  0.50412446     0.90600
O357        O  0.22132571  0.82351625  0.95190638    -0.73100
O358        O  0.10604742  0.82750157  0.94949353    -0.74100
O359        O  0.16584160  0.88369093  0.94847595    -0.62700
O360        O  0.16124896  0.76813000  0.95263041    -0.71100
O361        O  0.15990032  0.76953437  0.04038513    -0.70700
O362        O  0.16517350  0.88488222  0.03616629    -0.61900
O363        O  0.10532344  0.82925827  0.03720229    -0.74400
O364        O  0.22032914  0.82536736  0.03967219    -0.73200
Cu365      Cu  0.16371834  0.82571279  0.94752733     1.04600
Cu366      Cu  0.16272310  0.82733417  0.04137633     1.04300
C367        C  0.23896403  0.82363359  0.99622112     0.93100
C368        C  0.08748263  0.82833551  0.99309750     0.92200
C369        C  0.16634912  0.90254881  0.99180631     0.84400
C370        C  0.15895772  0.75070040  0.99708262     0.90600
O371        O  0.10279001  0.82441921  0.54679899    -0.73100
O372        O  0.21853323  0.82551406  0.54491846    -0.74100
O373        O  0.16010058  0.88255959  0.54750965    -0.62700
O374        O  0.16140151  0.76716929  0.54406334    -0.71100
O375        O  0.16107153  0.76882639  0.45630735    -0.70700
O376        O  0.15806597  0.88424363  0.45990303    -0.61900
O377        O  0.21759937  0.82863373  0.45725187    -0.74400
O378        O  0.10185868  0.82491109  0.45910522    -0.73200
Cu379      Cu  0.16071050  0.82481239  0.54884850     1.04600
Cu380      Cu  0.15964345  0.82664661  0.45507072     1.04300
C381        C  0.08403064  0.82458149  0.50333331     0.93100
C382        C  0.23630291  0.82777382  0.50076054     0.92200
C383        C  0.15892813  0.90167575  0.50430701     0.84400
C384        C  0.16178898  0.74980124  0.49962295     0.90600
C385        C  0.15785284  0.94424412  0.50536436    -0.06300
C386        C  0.13600667  0.96344250  0.46684620    -0.17400
C387        C  0.13269551  0.00352453  0.46667233     0.10900
C388        C  0.15251001  0.02545443  0.50502296    -0.06200
C389        C  0.17378483  0.00626892  0.54412301    -0.17500
C390        C  0.17712471  0.96616892  0.54431198     0.10900
S391        S  0.10123124  0.02468201  0.41808114    -0.32400
S392        S  0.20847776  0.94518796  0.59316956    -0.32400
H393        H  0.22478626  0.91824283  0.55848216     0.28900
H394        H  0.08673964  0.05307272  0.45217323     0.28900
H395        H  0.12047904  0.94701439  0.43737321     0.19500
H396        H  0.18940689  0.02274662  0.57344863     0.19500
C397        C  0.16713976  0.94515168  0.99077835    -0.06300
C398        C  0.14502139  0.96449072  0.95277422    -0.17400
C399        C  0.14102548  0.00454212  0.95382175     0.10900
C400        C  0.16012741  0.02628886  0.99316606    -0.06200
C401        C  0.18287012  0.00693620  0.03048377    -0.17500
C402        C  0.18716647  0.96694179  0.02909296     0.10900
S403        S  0.10884068  0.02571317  0.90634861    -0.32400
S404        S  0.22027418  0.94570758  0.07544225    -0.32400
H405        H  0.23362219  0.91761604  0.04009739     0.28900
H406        H  0.09245626  0.05094958  0.94327461     0.28900
H407        H  0.12926447  0.94814401  0.92344123     0.19500
H408        H  0.19834461  0.02320674  0.06015443     0.19500
C409        C  0.95636583  0.15487461  0.49418224    -0.06300
C410        C  0.97468167  0.13718199  0.53731562    -0.17400
C411        C  0.01447544  0.13193059  0.53845653     0.10900
C412        C  0.03745688  0.14623339  0.49654695    -0.06200
C413        C  0.01916616  0.16326246  0.45282460    -0.17500
C414        C  0.97915458  0.16784477  0.45119851     0.10900
S415        S  0.03351269  0.10446043  0.59299175    -0.32400
S416        S  0.95949937  0.19199091  0.39421962    -0.32400
H417        H  0.93449036  0.21520795  0.42387873     0.28900
H418        H  0.05933976  0.08343527  0.56154462     0.28900
H419        H  0.95768148  0.12594246  0.56984812     0.19500
H420        H  0.03625426  0.17428368  0.42024884     0.19500
C421        C  0.95529114  0.15016334  0.00555995    -0.06300
C422        C  0.97340370  0.13191930  0.96287411    -0.17400
C423        C  0.01348846  0.12834193  0.96030338     0.10900
C424        C  0.03638039  0.14295840  0.00196201    -0.06200
C425        C  0.01815880  0.16071235  0.04506592    -0.17500
C426        C  0.97821711  0.16522252  0.04678688     0.10900
S427        S  0.03441896  0.10415723  0.90412267    -0.32400
S428        S  0.95880304  0.19276532  0.10078173    -0.32400
H429        H  0.93251544  0.21314163  0.06912664     0.28900
H430        H  0.99990236  0.09371197  0.87897109     0.28900
H431        H  0.95592712  0.12012325  0.93141819     0.19500
H432        H  0.03531070  0.17280691  0.07671751     0.19500
C433        C  0.96060417  0.83559823  0.50466808    -0.06300
C434        C  0.97852035  0.81227389  0.46677362    -0.17400
C435        C  0.01835835  0.80674868  0.46675166     0.10900
C436        C  0.04143202  0.82594275  0.50444120    -0.06200
C437        C  0.02347151  0.84902143  0.54264196    -0.17500
C438        C  0.98355012  0.85432122  0.54289808     0.10900
S439        S  0.03754582  0.77307032  0.41965542    -0.32400
S440        S  0.96404215  0.88695028  0.59113467    -0.32400
H441        H  0.93594084  0.90244743  0.55731642     0.28900
H442        H  0.06563274  0.75828238  0.45407549     0.28900
H443        H  0.96116256  0.79710521  0.43794139     0.19500
H444        H  0.04082058  0.86423513  0.57142122     0.19500
C445        C  0.84059574  0.95794038  0.50414219    -0.06300
C446        C  0.85223610  0.97795918  0.45842023    -0.17400
C447        C  0.85321175  0.01816505  0.45652285     0.10900
C448        C  0.84063557  0.03969950  0.50065986    -0.06200
C449        C  0.82952665  0.01983611  0.54664299    -0.17500
C450        C  0.82926986  0.97961651  0.54905131     0.10900
S451        S  0.87317537  0.03979914  0.39766305    -0.32400
S452        S  0.81360205  0.95871462  0.61082619    -0.32400
H453        H  0.79003832  0.93068136  0.58779421     0.28900
H454        H  0.89605018  0.06637110  0.42551155     0.28900
H455        H  0.86197367  0.96216849  0.42409490     0.19500
H456        H  0.82012080  0.03578468  0.58101717     0.19500
C457        C  0.04504740  0.82872456  0.99297813    -0.06300
C458        C  0.02619529  0.85194691  0.03003795    -0.17400
C459        C  0.98616104  0.85524030  0.03038714     0.10900
C460        C  0.96402398  0.83417098  0.99358964    -0.06200
C461        C  0.98285095  0.81068023  0.95676215    -0.17500
C462        C  0.02292459  0.80724620  0.95654708     0.10900
S463        S  0.96538632  0.88838762  0.07690342    -0.32400
S464        S  0.04364787  0.77344456  0.91077187    -0.32400
H465        H  0.07287393  0.76084074  0.94495691     0.28900
H466        H  0.93714709  0.90218935  0.04192224     0.28900
H467        H  0.04287493  0.86870261  0.05794342     0.19500
H468        H  0.96611871  0.79385016  0.92900257     0.19500
C469        C  0.84495725  0.95334983  0.99738002    -0.06300
C470        C  0.82356991  0.97100654  0.03761104    -0.17400
C471        C  0.81927653  0.01095979  0.03959599     0.10900
C472        C  0.83711396  0.03435090  0.00070832    -0.06200
C473        C  0.85860324  0.01665539  0.96056676    -0.17500
C474        C  0.86343782  0.97674361  0.95917778     0.10900
S475        S  0.78926575  0.02982621  0.09145606    -0.32400
S476        S  0.89588872  0.95790329  0.91015307    -0.32400
H477        H  0.91207827  0.93010193  0.94393852     0.28900
H478        H  0.77228959  0.05816452  0.05950893     0.28900
H479        H  0.80905331  0.95345004  0.06701282     0.19500
H480        H  0.87327081  0.03419951  0.93129274     0.19500
C481        C  0.15820247  0.62621424  0.49670714    -0.06300
C482        C  0.18480592  0.64517632  0.52931448    -0.17400
C483        C  0.18696389  0.68533278  0.53066589     0.10900
C484        C  0.16232160  0.70734830  0.49817448    -0.06200
C485        C  0.13620216  0.68840951  0.46486630    -0.17500
C486        C  0.13332775  0.64816285  0.46456229     0.10900
S487        S  0.22242494  0.70664993  0.57356980    -0.32400
S488        S  0.09654213  0.62514664  0.42523220    -0.32400
H489        H  0.08002127  0.65892618  0.40486726     0.28900
H490        H  0.23145883  0.73697074  0.53882794     0.28900
H491        H  0.20405727  0.62846843  0.55391696     0.19500
H492        H  0.11707651  0.70532205  0.44043893     0.19500
C493        C  0.15530689  0.34337878  0.49928635    -0.06300
C494        C  0.18462129  0.32420862  0.47179978    -0.17400
C495        C  0.18682393  0.28401021  0.47175329     0.10900
C496        C  0.15888346  0.26225333  0.49934692    -0.06200
C497        C  0.12997535  0.28138682  0.52746962    -0.17500
C498        C  0.12753989  0.32151292  0.52719205     0.10900
S499        S  0.22693044  0.26234025  0.43806252    -0.32400
S500        S  0.08801111  0.34286539  0.56261058    -0.32400
H501        H  0.08428498  0.37527013  0.52971096     0.28900
H502        H  0.23129481  0.23166933  0.47391672     0.28900
H503        H  0.20629809  0.34078961  0.45089972     0.19500
H504        H  0.10844288  0.26484702  0.54873125     0.19500
C505        C  0.15004716  0.62729296  0.99717569    -0.06300
C506        C  0.12489798  0.64908702  0.02839548    -0.17400
C507        C  0.12719495  0.68928805  0.02943852     0.10900
C508        C  0.15501417  0.70842366  0.99800400    -0.06200
C509        C  0.17990330  0.68663763  0.96648847    -0.17500
C510        C  0.17849055  0.64644496  0.96691187     0.10900
S511        S  0.09313218  0.71429471  0.07057791    -0.32400
S512        S  0.21465243  0.62132483  0.92948538    -0.32400
H513        H  0.21717093  0.58945548  0.96363327     0.28900
H514        H  0.08840313  0.74589701  0.03655543     0.28900
H515        H  0.10319522  0.63458960  0.05199165     0.19500
H516        H  0.20151815  0.70101128  0.94263642     0.19500
C517        C  0.14912962  0.34447158  0.99987908    -0.06300
C518        C  0.11992222  0.32340653  0.97480581    -0.17400
C519        C  0.11904313  0.28315347  0.97714322     0.10900
C520        C  0.14838000  0.26322665  0.00435831    -0.06200
C521        C  0.17723419  0.28425518  0.03010958    -0.17500
C522        C  0.17823128  0.32449407  0.02760634     0.10900
S523        S  0.07888148  0.25890581  0.94663587    -0.32400
S524        S  0.21769811  0.34860108  0.05994671    -0.32400
H525        H  0.21908869  0.38044632  0.02563617     0.28900
H526        H  0.07711662  0.22854374  0.98343414     0.28900
H527        H  0.09714686  0.33851909  0.95432331     0.19500
H528        H  0.19995287  0.26916459  0.05074741     0.19500
C529        C  0.15083544  0.48565555  0.69260503    -0.06300
C530        C  0.12115685  0.46592847  0.71891697    -0.17400
C531        C  0.11831228  0.46631557  0.77416786     0.10900
C532        C  0.14602446  0.48645525  0.80421905    -0.06200
C533        C  0.17577052  0.50611481  0.77794026    -0.17500
C534        C  0.17869916  0.50562024  0.72269445     0.10900
S535        S  0.07847798  0.44092776  0.80396488    -0.32400
S536        S  0.21889891  0.53050359  0.69300101    -0.32400
H537        H  0.22288986  0.50554189  0.64974521     0.28900
H538        H  0.07437387  0.46554407  0.84757004     0.28900
H539        H  0.09966852  0.45063391  0.69609160     0.19500
H540        H  0.19727487  0.52136572  0.80079309     0.19500
C541        C  0.15300490  0.48525539  0.19221485    -0.06300
C542        C  0.12507874  0.50495386  0.22142652    -0.17400
C543        C  0.12554689  0.50477864  0.27672200     0.10900
C544        C  0.15513208  0.48518904  0.30380767    -0.06200
C545        C  0.18332646  0.46577774  0.27461359    -0.17500
C546        C  0.18266466  0.46565651  0.21924409     0.10900
S547        S  0.08710511  0.52934441  0.31034720    -0.32400
S548        S  0.22035142  0.43997050  0.18555342    -0.32400
H549        H  0.22108825  0.46336747  0.14014749     0.28900
H550        H  0.08541253  0.50448560  0.35423361     0.28900
H551        H  0.10221606  0.51988474  0.20087151     0.19500
H552        H  0.20607265  0.45071917  0.29522650     0.19500
C553        C  0.35520569  0.14584988  0.50368923    -0.06300
C554        C  0.33593812  0.11615747  0.47709870    -0.17400
C555        C  0.29579921  0.11348904  0.47790224     0.10900
C556        C  0.27424689  0.14136230  0.50538730    -0.06200
C557        C  0.29349290  0.17079933  0.53246688    -0.17500
C558        C  0.33360762  0.17369730  0.53128202     0.10900
S559        S  0.27388778  0.07297845  0.44515748    -0.32400
S560        S  0.35540752  0.21379328  0.56515989    -0.32400
H561        H  0.38776669  0.21693467  0.53209595     0.28900
H562        H  0.24331402  0.06876784  0.48118592     0.28900
H563        H  0.35239569  0.09445601  0.45650159     0.19500
H564        H  0.27707279  0.19244869  0.55323824     0.19500
C565        C  0.63828596  0.15282826  0.50642312    -0.06300
C566        C  0.65687438  0.18398414  0.48175045    -0.17400
C567        C  0.69701473  0.18713022  0.48151675     0.10900
C568        C  0.71935008  0.15848761  0.50635683    -0.06200
C569        C  0.70080443  0.12770919  0.53189831    -0.17500
C570        C  0.66065505  0.12421970  0.53144039     0.10900
S571        S  0.71799780  0.22889310  0.45027642    -0.32400
S572        S  0.63979374  0.08214565  0.56216027    -0.32400
H573        H  0.60784791  0.07938605  0.52834920     0.28900
H574        H  0.74933657  0.23192928  0.48512323     0.28900
H575        H  0.63989052  0.20617059  0.46286427     0.19500
H576        H  0.71779696  0.10547661  0.55067855     0.19500
C577        C  0.35417130  0.15560569  0.00559831    -0.06300
C578        C  0.33524571  0.12244079  0.02371604    -0.17400
C579        C  0.29525274  0.11896613  0.02063477     0.10900
C580        C  0.27337841  0.14948342  0.99956311    -0.06200
C581        C  0.29223066  0.18273358  0.98143036    -0.17500
C582        C  0.33231526  0.18633238  0.98485401     0.10900
S583        S  0.27395462  0.07426164  0.04221017    -0.32400
S584        S  0.35383890  0.23071800  0.96237532    -0.32400
H585        H  0.38611697  0.22928085  0.99569974     0.28900
H586        H  0.24425229  0.07415185  0.00454276     0.28900
H587        H  0.35193000  0.09862229  0.03898791     0.19500
H588        H  0.27553420  0.20642452  0.96580672     0.19500
C589        C  0.63796457  0.14742326  0.00442144    -0.06300
C590        C  0.65629644  0.18228007  0.99179589    -0.17400
C591        C  0.69635160  0.18508392  0.98887423     0.10900
C592        C  0.71886872  0.15272026  0.00213469    -0.06200
C593        C  0.70061720  0.11814869  0.01616852    -0.17500
C594        C  0.66054300  0.11481710  0.01617668     0.10900
S595        S  0.71591809  0.23109578  0.96892492    -0.32400
S596        S  0.64023034  0.06836416  0.03202330    -0.32400
H597        H  0.60580009  0.07296237  0.00377089     0.28900
H598        H  0.75371713  0.21999440  0.95811353     0.28900
H599        H  0.63905086  0.20735594  0.98287229     0.19500
H600        H  0.71776807  0.09322951  0.02601225     0.19500
C601        C  0.49484832  0.14295215  0.69865507    -0.06300
C602        C  0.48019725  0.17518084  0.72485098    -0.17400
C603        C  0.48036122  0.17736760  0.78005111     0.10900
C604        C  0.49497610  0.14631332  0.81003527    -0.06200
C605        C  0.50926352  0.11388124  0.78374036    -0.17500
C606        C  0.50913928  0.11176243  0.72847569     0.10900
S607        S  0.46157865  0.22052521  0.80964465    -0.32400
S608        S  0.52745438  0.06857161  0.69846527    -0.32400
H609        H  0.50471023  0.07007337  0.65261670     0.28900
H610        H  0.48503266  0.21980906  0.85485011     0.28900
H611        H  0.46913819  0.19909211  0.70196062     0.19500
H612        H  0.52024884  0.08990853  0.80656911     0.19500
C613        C  0.49754289  0.15193178  0.31078207    -0.06300
C614        C  0.50877284  0.18542789  0.28378866    -0.17400
C615        C  0.50788760  0.18722938  0.22849328     0.10900
C616        C  0.49613754  0.15458351  0.19951754    -0.06200
C617        C  0.48478554  0.12118180  0.22657827    -0.17500
C618        C  0.48556705  0.11943529  0.28179698     0.10900
S619        S  0.52228424  0.23174807  0.19735988    -0.32400
S620        S  0.47095805  0.07503570  0.31301476    -0.32400
H621        H  0.49596134  0.07769303  0.35648334     0.28900
H622        H  0.49996419  0.22766397  0.15143987     0.28900
H623        H  0.51782225  0.21043773  0.30605294     0.19500
H624        H  0.47581140  0.09610773  0.20438376     0.19500
C625        C  0.84197176  0.35767053  0.49753056    -0.06300
C626        C  0.86869657  0.33714417  0.52796145    -0.17400
C627        C  0.86919839  0.29695974  0.52786695     0.10900
C628        C  0.84207275  0.27656757  0.49715920    -0.06200
C629        C  0.81614994  0.29706037  0.46543198    -0.17500
C630        C  0.81537935  0.33726588  0.46587811     0.10900
S631        S  0.90635078  0.27349183  0.56558563    -0.32400
S632        S  0.77935821  0.36068450  0.42597739    -0.32400
H633        H  0.77455857  0.39270067  0.45905759     0.28900
H634        H  0.91211675  0.24351527  0.52926386     0.28900
H635        H  0.88966871  0.35264616  0.55143022     0.19500
H636        H  0.79550795  0.28161876  0.44137739     0.19500
C637        C  0.85028583  0.63983714  0.50291346    -0.06300
C638        C  0.81905311  0.65815000  0.52706898    -0.17400
C639        C  0.81520757  0.69814302  0.52540232     0.10900
C640        C  0.84336058  0.72061512  0.49929528    -0.06200
C641        C  0.87460841  0.70233481  0.47505018    -0.17500
C642        C  0.87872240  0.66233227  0.47733381     0.10900
S643        S  0.77287199  0.71850835  0.55528297    -0.32400
S644        S  0.92097977  0.64176362  0.44745843    -0.32400
H645        H  0.92313666  0.60972161  0.48133694     0.28900
H646        H  0.76967305  0.74956949  0.51993732     0.28900
H647        H  0.79693198  0.64099730  0.54614385     0.19500
H648        H  0.89659160  0.71945440  0.45560586     0.19500
C649        C  0.83829368  0.27159971  0.00680968    -0.06300
C650        C  0.86542516  0.29053483  0.97476186    -0.17400
C651        C  0.86870066  0.33067032  0.97444269     0.10900
C652        C  0.84306028  0.35289624  0.00504989    -0.06200
C653        C  0.81592418  0.33397840  0.03709815    -0.17500
C654        C  0.81330460  0.29378291  0.03857685     0.10900
S655        S  0.90662996  0.35159310  0.93490373    -0.32400
S656        S  0.77658354  0.27327678  0.08067677    -0.32400
H657        H  0.77131557  0.23892778  0.05280739     0.28900
H658        H  0.91207759  0.38432282  0.96651233     0.28900
H659        H  0.88506889  0.27381678  0.95087282     0.19500
H660        H  0.79614223  0.35080469  0.06061367     0.19500
C661        C  0.84729683  0.63581940  0.99463552    -0.06300
C662        C  0.81816560  0.65509937  0.96691530    -0.17400
C663        C  0.81704535  0.69525807  0.96478957     0.10900
C664        C  0.84556205  0.71681735  0.99121485    -0.06200
C665        C  0.87487758  0.69760975  0.01856195    -0.17500
C666        C  0.87659529  0.65744073  0.01951111     0.10900
S667        S  0.77775400  0.71719865  0.92949639    -0.32400
S668        S  0.91715203  0.63564237  0.05224349    -0.32400
H669        H  0.91797879  0.60214525  0.02134291     0.28900
H670        H  0.77334489  0.74834323  0.96423905     0.28900
H671        H  0.79575882  0.63865163  0.94750725     0.19500
H672        H  0.89713462  0.71407723  0.03827991     0.19500
C673        C  0.84189518  0.49579236  0.69471615    -0.06300
C674        C  0.81102739  0.51255326  0.72177598    -0.17400
C675        C  0.80848440  0.51065624  0.77701486     0.10900
C676        C  0.83762530  0.49188554  0.80609675    -0.06200
C677        C  0.86836907  0.47497354  0.77899042    -0.17500
C678        C  0.87102119  0.47705757  0.72383289     0.10900
S679        S  0.76753239  0.53280723  0.80811009    -0.32400
S680        S  0.91255108  0.45584404  0.69297441    -0.32400
H681        H  0.91469839  0.48182133  0.65036843     0.28900
H682        H  0.76613786  0.50810217  0.85217937     0.28900
H683        H  0.78852933  0.52677961  0.69958307     0.19500
H684        H  0.89103991  0.46100831  0.80117152     0.19500
C685        C  0.84808089  0.49968649  0.30613077    -0.06300
C686        C  0.87917436  0.51480266  0.27738666    -0.17400
C687        C  0.87961866  0.51379155  0.22203732     0.10900
C688        C  0.84809702  0.49761515  0.19462420    -0.06200
C689        C  0.81701433  0.48250884  0.22343234    -0.17500
C690        C  0.81647699  0.48376255  0.27874118     0.10900
S691        S  0.92112879  0.53361154  0.18879407    -0.32400
S692        S  0.77450719  0.46512443  0.31217673    -0.32400
H693        H  0.77560880  0.49102887  0.35471574     0.28900
H694        H  0.91931855  0.50982827  0.14405442     0.28900
H695        H  0.90344631  0.52705569  0.29832897     0.19500
H696        H  0.79267330  0.47033230  0.20255195     0.19500
C697        C  0.36009600  0.82581363  0.49648634    -0.06300
C698        C  0.33992175  0.85350978  0.46720085    -0.17400
C699        C  0.29973883  0.85534829  0.46864608     0.10900
C700        C  0.27883451  0.82885607  0.50007584    -0.06200
C701        C  0.29903079  0.80177240  0.53040809    -0.17500
C702        C  0.33918775  0.79941370  0.52815281     0.10900
S703        S  0.27713390  0.89334526  0.43145950    -0.32400
S704        S  0.36187615  0.76172693  0.56595916    -0.32400
H705        H  0.39345305  0.75697850  0.53191978     0.28900
H706        H  0.24683846  0.89925336  0.46728686     0.28900
H707        H  0.35573672  0.87433540  0.44368399     0.19500
H708        H  0.28335817  0.78146918  0.55486475     0.19500
C709        C  0.64311993  0.83375880  0.49322485    -0.06300
C710        C  0.66166352  0.86692831  0.51167740    -0.17400
C711        C  0.70174294  0.86987945  0.51147195     0.10900
C712        C  0.72400247  0.83863727  0.49373097    -0.06200
C713        C  0.70545668  0.80580610  0.47401955    -0.17500
C714        C  0.66529710  0.80287623  0.47400876     0.10900
S715        S  0.72251074  0.91491270  0.53182703    -0.32400
S716        S  0.64414583  0.75902625  0.44939164    -0.32400
H717        H  0.61110515  0.75974939  0.48136457     0.28900
H718        H  0.75459336  0.91318929  0.49808814     0.28900
H719        H  0.64467814  0.89094333  0.52549541     0.19500
H720        H  0.72238374  0.78192344  0.45968414     0.19500
C721        C  0.36237731  0.82584357  0.99658858    -0.06300
C722        C  0.34271785  0.79804340  0.96677000    -0.17400
C723        C  0.30254952  0.79611277  0.96672921     0.10900
C724        C  0.28130136  0.82245316  0.99733923    -0.06200
C725        C  0.30092853  0.84950193  0.02834732    -0.17500
C726        C  0.34105499  0.85205371  0.02745940     0.10900
S727        S  0.28020399  0.75849272  0.92854339    -0.32400
S728        S  0.36311949  0.88998956  0.06548034    -0.32400
H729        H  0.39488162  0.89549045  0.03187148     0.28900
H730        H  0.24985488  0.75205863  0.96428517     0.28900
H731        H  0.35888872  0.77751303  0.94362416     0.19500
H732        H  0.28483011  0.86978442  0.05194931     0.19500
C733        C  0.64591819  0.82911479  0.99196187    -0.06300
C734        C  0.66496022  0.85769901  0.96240626    -0.17400
C735        C  0.70517140  0.86027669  0.96164205     0.10900
C736        C  0.72715602  0.83412391  0.99187220    -0.06200
C737        C  0.70818049  0.80548863  0.02121757    -0.17500
C738        C  0.66807294  0.80199958  0.02035919     0.10900
S739        S  0.72655886  0.89823312  0.92262067    -0.32400
S740        S  0.64707904  0.76158173  0.05484026    -0.32400
H741        H  0.61515068  0.75748614  0.02124114     0.28900
H742        H  0.75671561  0.90594410  0.95810455     0.28900
H743        H  0.64827807  0.87846930  0.94022916     0.19500
H744        H  0.72485336  0.78472258  0.04343052     0.19500
C745        C  0.50232782  0.83102226  0.80006411    -0.06300
C746        C  0.51845400  0.86268256  0.77350764    -0.17400
C747        C  0.51818194  0.86494009  0.71823659     0.10900
C748        C  0.50207175  0.83448043  0.68866936    -0.06200
C749        C  0.48564984  0.80300988  0.71526190    -0.17500
C750        C  0.48577489  0.80082643  0.77047600     0.10900
S751        S  0.53857788  0.90741188  0.68798735    -0.32400
S752        S  0.46454413  0.75875351  0.80067336    -0.32400
H753        H  0.48839199  0.75810815  0.84549185     0.28900
H754        H  0.51593373  0.90669438  0.64200530     0.28900
H755        H  0.53089336  0.88602217  0.79613664     0.19500
H756        H  0.47320560  0.77964775  0.69267282     0.19500
C757        C  0.50408136  0.82658719  0.18838254    -0.06300
C758        C  0.52005879  0.79605586  0.21718970    -0.17400
C759        C  0.51847493  0.79526878  0.27252078     0.10900
C760        C  0.50130253  0.82608056  0.29993951    -0.06200
C761        C  0.48512710  0.85650019  0.27113124    -0.17500
C762        C  0.48635724  0.85712498  0.21579125     0.10900
S763        S  0.53854809  0.75409459  0.30590964    -0.32400
S764        S  0.46469549  0.89757072  0.18251480    -0.32400
H765        H  0.48880033  0.89735091  0.13790042     0.28900
H766        H  0.51346567  0.75465895  0.34951243     0.28900
H767        H  0.53325251  0.77236905  0.19629882     0.19500
H768        H  0.47187450  0.88015266  0.29202850     0.19500
loop_ 
_geom_bond_atom_site_label_1 
_geom_bond_atom_site_label_2 
_geom_bond_distance 
_geom_bond_site_symmetry_2 
_ccdc_geom_bond_type 
N1            C6   1.353       .  A
N1            C5   1.352       .  A
N1           H33   1.039       .  S
N2            C9   1.352       .  A
N2           C10   1.353       .  A
N3            C8   1.353       .  A
N3            C7   1.354       .  A
N3           H34   1.039       .  S
N4           C11   1.351       .  A
N4           C12   1.351       .  A
C5           C13   1.387       .  A
C5           C21   1.413       .  A
C6           C22   1.415   1_554  A
C6           C14   1.387       .  A
C7           C15   1.387       .  A
C7           C24   1.417       .  A
C8           C23   1.415       .  A
C8           C16   1.387       .  A
C9           C21   1.414       .  A
C9           C17   1.386       .  A
C10          C24   1.416   1_554  A
C10          C18   1.386       .  A
C11          C19   1.387       .  A
C11          C22   1.414       .  A
C12          C20   1.386       .  A
C12          C23   1.412       .  A
C13          C14   1.376       .  A
C13          H25   1.082       .  S
C14          H26   1.082       .  S
C15          C16   1.376       .  A
C15          H27   1.082       .  S
C16          H28   1.082       .  S
C17          C18   1.374       .  A
C17          H29   1.082       .  S
C18          H30   1.082       .  S
C19          C20   1.373       .  A
C19          H31   1.082       .  S
C20          H32   1.082       .  S
C21         C757   1.488       .  S
C22         C721   1.490       .  S
C23         C745   1.486       .  S
C24         C733   1.496       .  S
N35          C40   1.353       .  A
N35          C39   1.353       .  A
N35          H67   1.037       .  S
N36          C43   1.351       .  A
N36          C44   1.351       .  A
N37          C42   1.353       .  A
N37          C41   1.353       .  A
N37          H68   1.039       .  S
N38          C45   1.352       .  A
N38          C46   1.353       .  A
C39          C47   1.387       .  A
C39          C55   1.415       .  A
C40          C56   1.416       .  A
C40          C48   1.387       .  A
C41          C49   1.386       .  A
C41          C58   1.413       .  A
C42          C57   1.416       .  A
C42          C50   1.387       .  A
C43          C55   1.412       .  A
C43          C51   1.386       .  A
C44          C58   1.412       .  A
C44          C52   1.386       .  A
C45          C53   1.386       .  A
C45          C56   1.414       .  A
C46          C54   1.386       .  A
C46          C57   1.416       .  A
C47          C48   1.376       .  A
C47          H59   1.082       .  S
C48          H60   1.082       .  S
C49          C50   1.375       .  A
C49          H61   1.082       .  S
C50          H62   1.082       .  S
C51          C52   1.373       .  A
C51          H63   1.082       .  S
C52          H64   1.082       .  S
C53          C54   1.374       .  A
C53          H65   1.082       .  S
C54          H66   1.082       .  S
C55         C709   1.485       .  S
C56         C760   1.489       .  S
C57         C697   1.494       .  S
C58         C748   1.487       .  S
N69          C74   1.354       .  A
N69          C73   1.354       .  A
N69         H101   1.039       .  S
N70          C77   1.352       .  A
N70          C78   1.352       .  A
N71          C76   1.353       .  A
N71          C75   1.352       .  A
N71         H102   1.039       .  S
N72          C79   1.351       .  A
N72          C80   1.351       .  A
C73          C81   1.387       .  A
C73          C89   1.418       .  A
C74          C90   1.415       .  A
C74          C82   1.386       .  A
C75          C83   1.387       .  A
C75          C92   1.413       .  A
C76          C91   1.414       .  A
C76          C84   1.387       .  A
C77          C89   1.415   1_556  A
C77          C85   1.387       .  A
C78          C92   1.413       .  A
C78          C86   1.385       .  A
C79          C87   1.386       .  A
C79          C90   1.413       .  A
C80          C88   1.386       .  A
C80          C91   1.414   1_554  A
C81          C82   1.377       .  A
C81          H93   1.082       .  S
C82          H94   1.082       .  S
C83          C84   1.375       .  A
C83          H95   1.082       .  S
C84          H96   1.082       .  S
C85          C86   1.374       .  A
C85          H97   1.082       .  S
C86          H98   1.082       .  S
C87          C88   1.374       .  A
C87          H99   1.082       .  S
C88         H100   1.082       .  S
C89         C652   1.495       .  S
C90         C688   1.488       .  S
C91         C661   1.489       .  S
C92         C676   1.489       .  S
N103        C108   1.354       .  A
N103        C107   1.353       .  A
N103        H135   1.039       .  S
N104        C111   1.351       .  A
N104        C112   1.352       .  A
N105        C110   1.352       .  A
N105        C109   1.352       .  A
N105        H136   1.039       .  S
N106        C113   1.350       .  A
N106        C114   1.350       .  A
C107        C115   1.387       .  A
C107        C123   1.416       .  A
C108        C124   1.416       .  A
C108        C116   1.387       .  A
C109        C117   1.386       .  A
C109        C126   1.411       .  A
C110        C125   1.414       .  A
C110        C118   1.387       .  A
C111        C123   1.413       .  A
C111        C119   1.387       .  A
C112        C126   1.410       .  A
C112        C120   1.385       .  A
C113        C121   1.386       .  A
C113        C124   1.412       .  A
C114        C122   1.387       .  A
C114        C125   1.413       .  A
C115        C116   1.378       .  A
C115        H127   1.082       .  S
C116        H128   1.082       .  S
C117        C118   1.377       .  A
C117        H129   1.082       .  S
C118        H130   1.082       .  S
C119        C120   1.373       .  A
C119        H131   1.082       .  S
C120        H132   1.082       .  S
C121        C122   1.374       .  A
C121        H133   1.082       .  S
C122        H134   1.082       .  S
C123        C637   1.489       .  S
C124        C673   1.489       .  S
C125        C625   1.488       .  S
C126        C685   1.486       .  S
N137        C142   1.352       .  A
N137        C141   1.354       .  A
N137        H169   1.039       .  S
N138        C145   1.352       .  A
N138        C146   1.352       .  A
N139        C144   1.354       .  A
N139        C143   1.354       .  A
N139        H170   1.036       .  S
N140        C147   1.352       .  A
N140        C148   1.352       .  A
C141        C149   1.387       .  A
C141        C157   1.417       .  A
C142        C158   1.417       .  A
C142        C150   1.388       .  A
C143        C151   1.386       .  A
C143        C160   1.418       .  A
C144        C159   1.422   1_556  A
C144        C152   1.389       .  A
C145        C157   1.415   1_556  A
C145        C153   1.386       .  A
C146        C160   1.414       .  A
C146        C154   1.386       .  A
C147        C155   1.386       .  A
C147        C158   1.416       .  A
C148        C156   1.387       .  A
C148        C159   1.418       .  A
C149        C150   1.375       .  A
C149        H161   1.082       .  S
C150        H162   1.083       .  S
C151        C152   1.372       .  A
C151        H163   1.082       .  S
C152        H164   1.081       .  S
C153        C154   1.370       .  A
C153        H165   1.082       .  S
C154        H166   1.082       .  S
C155        C156   1.371       .  A
C155        H167   1.082       .  S
C156        H168   1.082       .  S
C157        C577   1.489       .  S
C158        C616   1.485       .  S
C159        C589   1.490       .  S
C160        C604   1.490       .  S
N171        C176   1.353       .  A
N171        C175   1.354       .  A
N171        H203   1.039       .  S
N172        C179   1.352       .  A
N172        C180   1.351       .  A
N173        C178   1.353       .  A
N173        C177   1.352       .  A
N173        H204   1.038       .  S
N174        C181   1.350       .  A
N174        C182   1.351       .  A
C175        C183   1.387       .  A
C175        C191   1.416       .  A
C176        C192   1.415       .  A
C176        C184   1.387       .  A
C177        C185   1.387       .  A
C177        C194   1.413       .  A
C178        C193   1.416       .  A
C178        C186   1.387       .  A
C179        C191   1.413       .  A
C179        C187   1.386       .  A
C180        C194   1.412       .  A
C180        C188   1.386       .  A
C181        C189   1.386       .  A
C181        C192   1.411       .  A
C182        C190   1.386       .  A
C182        C193   1.412       .  A
C183        C184   1.377       .  A
C183        H195   1.082       .  S
C184        H196   1.082       .  S
C185        C186   1.377       .  A
C185        H197   1.082       .  S
C186        H198   1.082       .  S
C187        C188   1.373       .  A
C187        H199   1.082       .  S
C188        H200   1.082       .  S
C189        C190   1.373       .  A
C189        H201   1.082       .  S
C190        H202   1.082       .  S
C191        C565   1.491       .  S
C192        C601   1.484       .  S
C193        C553   1.488       .  S
C194        C613   1.484       .  S
N205        C210   1.354       .  A
N205        C209   1.353       .  A
N205        H237   1.040       .  S
N206        C213   1.351       .  A
N206        C214   1.351       .  A
N207        C212   1.353       .  A
N207        C211   1.353       .  A
N207        H238   1.040       .  S
N208        C215   1.351       .  A
N208        C216   1.350       .  A
C209        C217   1.387       .  A
C209        C225   1.417       .  A
C210        C226   1.416       .  A
C210        C218   1.386       .  A
C211        C219   1.387       .  A
C211        C228   1.415   1_554  A
C212        C227   1.414       .  A
C212        C220   1.386       .  A
C213        C225   1.414       .  A
C213        C221   1.386       .  A
C214        C228   1.414       .  A
C214        C222   1.386       .  A
C215        C223   1.386       .  A
C215        C226   1.412   1_554  A
C216        C224   1.386       .  A
C216        C227   1.411       .  A
C217        C218   1.379       .  A
C217        H229   1.082       .  S
C218        H230   1.082       .  S
C219        C220   1.376       .  A
C219        H231   1.082       .  S
C220        H232   1.082       .  S
C221        C222   1.376       .  A
C221        H233   1.082       .  S
C222        H234   1.082       .  S
C223        C224   1.374       .  A
C223        H235   1.082       .  S
C224        H236   1.082       .  S
C225        C532   1.491       .  S
C226        C517   1.492       .  S
C227        C541   1.488       .  S
C228        C505   1.492       .  S
N239        C244   1.353       .  A
N239        C243   1.352       .  A
N239        H271   1.040       .  S
N240        C247   1.351       .  A
N240        C248   1.351       .  A
N241        C246   1.354       .  A
N241        C245   1.354       .  A
N241        H272   1.040       .  S
N242        C249   1.351       .  A
N242        C250   1.351       .  A
C243        C251   1.386       .  A
C243        C259   1.413       .  A
C244        C260   1.417       .  A
C244        C252   1.388       .  A
C245        C253   1.387       .  A
C245        C262   1.416       .  A
C246        C261   1.416       .  A
C246        C254   1.387       .  A
C247        C259   1.412       .  A
C247        C255   1.386       .  A
C248        C262   1.413       .  A
C248        C256   1.386       .  A
C249        C257   1.387       .  A
C249        C260   1.414       .  A
C250        C258   1.386       .  A
C250        C261   1.413       .  A
C251        C252   1.378       .  A
C251        H263   1.082       .  S
C252        H264   1.082       .  S
C253        C254   1.377       .  A
C253        H265   1.082       .  S
C254        H266   1.082       .  S
C255        C256   1.373       .  A
C255        H267   1.082       .  S
C256        H268   1.082       .  S
C257        C258   1.374       .  A
C257        H269   1.082       .  S
C258        H270   1.082       .  S
C259        C544   1.488       .  S
C260        C481   1.493       .  S
C261        C529   1.492       .  S
C262        C493   1.492       .  S
O273       Cu281   2.000       .  S
O273        C283   1.276   1_554  A
O274       Cu281   2.006       .  S
O274        C284   1.278   1_554  A
O275       Cu281   2.016       .  S
O275        C285   1.279   1_554  A
O276       Cu281   2.008       .  S
O276        C286   1.278   1_554  A
O277       Cu282   2.009       .  S
O277        C286   1.278       .  A
O278       Cu282   2.010       .  S
O278        C285   1.277       .  A
O279       Cu282   2.013       .  S
O279        C284   1.279       .  A
O280       Cu282   2.014       .  S
O280        C283   1.278       .  A
Cu281      Cu282   2.373   1_554  S
C283        C664   1.471       .  S
C284        C469   1.482       .  S
C285        C736   1.478       .  S
C286        C460   1.478       .  S
O287       Cu295   2.023       .  S
O287        C297   1.281       .  A
O288       Cu295   2.015       .  S
O288        C298   1.278       .  A
O289       Cu295   2.007       .  S
O289        C299   1.276       .  A
O290       Cu295   2.004       .  S
O290        C300   1.277       .  A
O291       Cu296   2.019       .  S
O291        C300   1.279       .  A
O292       Cu296   2.020       .  S
O292        C299   1.279       .  A
O293       Cu296   2.009       .  S
O293        C298   1.277       .  A
O294       Cu296   2.003       .  S
O294        C297   1.275       .  A
Cu295      Cu296   2.370       .  S
C297        C445   1.492       .  S
C298        C640   1.474       .  S
C299        C712   1.473       .  S
C300        C433   1.481       .  S
O301       Cu309   2.017       .  S
O301        C311   1.279       .  A
O302       Cu309   2.011       .  S
O302        C312   1.278       .  A
O303       Cu309   2.010       .  S
O303        C313   1.278       .  A
O304       Cu309   2.008       .  S
O304        C314   1.277       .  A
O305       Cu310   2.008       .  S
O305        C314   1.277   1_556  A
O306       Cu310   2.003       .  S
O306        C313   1.278   1_556  A
O307       Cu310   2.010       .  S
O307        C312   1.278   1_556  A
O308       Cu310   2.012       .  S
O308        C311   1.278   1_556  A
Cu309      Cu310   2.373   1_554  S
C311        C649   1.480       .  S
C312        C472   1.483       .  S
C313        C421   1.483       .  S
C314        C592   1.469       .  S
O315       Cu323   2.005       .  S
O315        C325   1.277       .  A
O316       Cu323   2.007       .  S
O316        C326   1.277       .  A
O317       Cu323   2.014       .  S
O317        C327   1.278       .  A
O318       Cu323   2.016       .  S
O318        C328   1.278       .  A
O319       Cu324   2.003       .  S
O319        C328   1.278       .  A
O320       Cu324   2.016       .  S
O320        C327   1.278       .  A
O321       Cu324   2.010       .  S
O321        C326   1.279       .  A
O322       Cu324   2.013       .  S
O322        C325   1.279       .  A
Cu323      Cu324   2.371       .  S
C325        C628   1.474       .  S
C326        C448   1.488       .  S
C327        C568   1.476       .  S
C328        C409   1.486       .  S
O329       Cu337   2.025       .  S
O329        C339   1.280       .  A
O330       Cu337   2.020       .  S
O330        C340   1.280   1_554  A
O331       Cu337   2.005       .  S
O331        C341   1.277   1_554  A
O332       Cu337   2.011       .  S
O332        C342   1.279       .  A
O333       Cu338   2.009       .  S
O333        C342   1.278   1_556  A
O334       Cu338   2.022       .  S
O334        C341   1.279       .  A
O335       Cu338   2.013       .  S
O335        C340   1.278       .  A
O336       Cu338   2.005       .  S
O336        C339   1.277   1_556  A
Cu337      Cu338   2.372   1_554  S
C339        C520   1.477       .  S
C340        C400   1.485       .  S
C341        C580   1.474       .  S
C342        C424   1.486       .  S
O343       Cu351   2.019       .  S
O343        C353   1.279       .  A
O344       Cu351   2.009       .  S
O344        C354   1.278       .  A
O345       Cu351   2.013       .  S
O345        C355   1.278       .  A
O346       Cu351   2.006       .  S
O346        C356   1.277       .  A
O347       Cu352   2.012       .  S
O347        C356   1.278       .  A
O348       Cu352   2.007       .  S
O348        C355   1.278       .  A
O349       Cu352   2.011       .  S
O349        C354   1.278       .  A
O350       Cu352   2.003       .  S
O350        C353   1.276       .  A
Cu351      Cu352   2.372       .  S
C353        C496   1.475       .  S
C354        C388   1.481       .  S
C355        C412   1.486       .  S
C356        C556   1.473       .  S
O357       Cu365   2.009       .  S
O357        C367   1.278       .  A
O358       Cu365   2.008       .  S
O358        C368   1.278       .  A
O359       Cu365   2.018       .  S
O359        C369   1.279       .  A
O360       Cu365   2.009       .  S
O360        C370   1.278       .  A
O361       Cu366   2.013       .  S
O361        C370   1.278   1_554  A
O362       Cu366   2.008       .  S
O362        C369   1.278   1_554  A
O363       Cu366   2.001       .  S
O363        C368   1.277   1_554  A
O364       Cu366   2.006       .  S
O364        C367   1.277   1_554  A
Cu365      Cu366   2.374   1_556  S
C367        C724   1.474       .  S
C368        C457   1.477       .  S
C369        C397   1.483       .  S
C370        C508   1.477       .  S
O371       Cu379   2.016       .  S
O371        C381   1.279       .  A
O372       Cu379   2.014       .  S
O372        C382   1.278       .  A
O373       Cu379   2.010       .  S
O373        C383   1.278       .  A
O374       Cu379   2.010       .  S
O374        C384   1.278       .  A
O375       Cu380   2.013       .  S
O375        C384   1.278       .  A
O376       Cu380   2.009       .  S
O376        C383   1.278       .  A
O377       Cu380   2.018       .  S
O377        C382   1.279       .  A
O378       Cu380   2.014       .  S
O378        C381   1.278       .  A
Cu379      Cu380   2.372       .  S
C381        C436   1.483       .  S
C382        C700   1.480       .  S
C383        C385   1.482       .  S
C384        C484   1.478       .  S
C385        C386   1.405       .  A
C385        C390   1.415       .  A
C386        C387   1.400   1_565  A
C386        H395   1.084       .  S
C387        C388   1.414       .  A
C387        S391   1.803       .  S
C388        C389   1.404       .  A
C389        C390   1.400   1_545  A
C389        H396   1.084       .  S
C390        S392   1.803       .  S
S391        H394   1.408       .  S
S392        H393   1.407       .  S
C397        C398   1.403       .  A
C397        C402   1.414   1_556  A
C398        C399   1.401   1_565  A
C398        H407   1.084       .  S
C399        C400   1.416       .  A
C399        S403   1.800       .  S
C400        C401   1.404   1_556  A
C401        C402   1.401   1_545  A
C401        H408   1.084       .  S
C402        S404   1.803       .  S
S403        H406   1.406       .  S
S404        H405   1.407       .  S
C409        C410   1.405       .  A
C409        C414   1.416       .  A
C410        C411   1.398   1_655  A
C410        H419   1.084       .  S
C411        C412   1.415       .  A
C411        S415   1.803       .  S
C412        C413   1.406       .  A
C413        C414   1.402   1_455  A
C413        H420   1.084       .  S
C414        S416   1.802       .  S
S415        H418   1.408       .  S
S416        H417   1.407       .  S
C421        C422   1.404   1_554  A
C421        C426   1.414       .  A
C422        C423   1.402   1_655  A
C422        H431   1.082       .  S
C423        C424   1.416   1_556  A
C423        S427   1.808       .  S
C424        C425   1.406       .  A
C425        C426   1.400   1_455  A
C425        H432   1.084       .  S
C426        S428   1.803       .  S
S427        H430   1.406   1_455  S
S428        H429   1.408       .  S
C433        C434   1.405       .  A
C433        C438   1.413       .  A
C434        C435   1.400   1_655  A
C434        H443   1.084       .  S
C435        C436   1.414       .  A
C435        S439   1.803       .  S
C436        C437   1.406       .  A
C437        C438   1.402   1_455  A
C437        H444   1.084       .  S
C438        S440   1.803       .  S
S439        H442   1.407       .  S
S440        H441   1.407       .  S
C445        C446   1.406       .  A
C445        C450   1.422       .  A
C446        C447   1.400   1_565  A
C446        H455   1.084       .  S
C447        C448   1.416       .  A
C447        S451   1.803       .  S
C448        C449   1.404       .  A
C449        C450   1.400   1_545  A
C449        H456   1.084       .  S
C450        S452   1.804       .  S
S451        H454   1.408       .  S
S452        H453   1.400       .  S
C457        C458   1.403   1_556  A
C457        C462   1.414       .  A
C458        C459   1.398   1_455  A
C458        H467   1.084       .  S
C459        C460   1.413   1_554  A
C459        S463   1.803       .  S
C460        C461   1.405       .  A
C461        C462   1.400   1_655  A
C461        H468   1.084       .  S
C462        S464   1.805       .  S
S463        H466   1.407       .  S
S464        H465   1.406       .  S
C469        C470   1.405   1_556  A
C469        C474   1.414       .  A
C470        C471   1.400   1_565  A
C470        H479   1.084       .  S
C471        C472   1.416       .  A
C471        S475   1.803       .  S
C472        C473   1.405   1_554  A
C473        C474   1.400   1_545  A
C473        H480   1.084       .  S
C474        S476   1.803       .  S
S475        H478   1.405       .  S
S476        H477   1.408       .  S
C481        C482   1.404       .  A
C481        C486   1.412       .  A
C482        C483   1.399       .  A
C482        H491   1.084       .  S
C483        C484   1.414       .  A
C483        S487   1.803       .  S
C484        C485   1.403       .  A
C485        C486   1.403       .  A
C485        H492   1.083       .  S
C486        S488   1.808       .  S
S487        H490   1.405       .  S
S488        H489   1.407       .  S
C493        C494   1.406       .  A
C493        C498   1.414       .  A
C494        C495   1.401       .  A
C494        H503   1.084       .  S
C495        C496   1.412       .  A
C495        S499   1.803       .  S
C496        C497   1.403       .  A
C497        C498   1.399       .  A
C497        H504   1.084       .  S
C498        S500   1.805       .  S
S499        H502   1.407       .  S
S500        H501   1.405       .  S
C505        C506   1.404   1_556  A
C505        C510   1.414       .  A
C506        C507   1.401       .  A
C506        H515   1.084       .  S
C507        C508   1.415   1_554  A
C507        S511   1.804       .  S
C508        C509   1.403       .  A
C509        C510   1.399       .  A
C509        H516   1.083       .  S
C510        S512   1.804       .  S
S511        H514   1.404       .  S
S512        H513   1.406       .  S
C517        C518   1.403       .  A
C517        C522   1.415   1_556  A
C518        C519   1.402       .  A
C518        H527   1.084       .  S
C519        C520   1.414   1_556  A
C519        S523   1.804       .  S
C520        C521   1.402       .  A
C521        C522   1.401       .  A
C521        H528   1.084       .  S
C522        S524   1.804       .  S
S523        H526   1.407       .  S
S524        H525   1.406       .  S
C529        C530   1.404       .  A
C529        C534   1.414       .  A
C530        C531   1.401       .  A
C530        H539   1.084       .  S
C531        C532   1.413       .  A
C531        S535   1.804       .  S
C532        C533   1.404       .  A
C533        C534   1.401       .  A
C533        H540   1.084       .  S
C534        S536   1.804       .  S
S535        H538   1.406       .  S
S536        H537   1.406       .  S
C541        C542   1.402       .  A
C541        C546   1.414       .  A
C542        C543   1.398       .  A
C542        H551   1.084       .  S
C543        C544   1.413       .  A
C543        S547   1.804       .  S
C544        C545   1.404       .  A
C545        C546   1.400       .  A
C545        H552   1.084       .  S
C546        S548   1.805       .  S
S547        H550   1.406       .  S
S548        H549   1.405       .  S
C553        C554   1.403       .  A
C553        C558   1.414       .  A
C554        C555   1.399       .  A
C554        H563   1.084       .  S
C555        C556   1.413       .  A
C555        S559   1.804       .  S
C556        C557   1.402       .  A
C557        C558   1.399       .  A
C557        H564   1.084       .  S
C558        S560   1.804       .  S
S559        H562   1.407       .  S
S560        H561   1.406       .  S
C565        C566   1.404       .  A
C565        C570   1.414       .  A
C566        C567   1.400       .  A
C566        H575   1.084       .  S
C567        C568   1.412       .  A
C567        S571   1.803       .  S
C568        C569   1.403       .  A
C569        C570   1.402       .  A
C569        H576   1.084       .  S
C570        S572   1.804       .  S
S571        H574   1.406       .  S
S572        H573   1.406       .  S
C577        C578   1.402       .  A
C577        C582   1.414   1_554  A
C578        C579   1.398       .  A
C578        H587   1.084       .  S
C579        C580   1.412   1_554  A
C579        S583   1.803       .  S
C580        C581   1.403       .  A
C581        C582   1.402       .  A
C581        H588   1.084       .  S
C582        S584   1.804       .  S
S583        H586   1.406       .  S
S584        H585   1.405       .  S
C589        C590   1.404   1_554  A
C589        C594   1.413       .  A
C590        C591   1.399       .  A
C590        H599   1.084       .  S
C591        C592   1.414   1_556  A
C591        S595   1.807       .  S
C592        C593   1.402       .  A
C593        C594   1.399       .  A
C593        H600   1.083       .  S
C594        S596   1.805       .  S
S595        H598   1.399       .  S
S596        H597   1.405       .  S
C601        C602   1.402       .  A
C601        C606   1.412       .  A
C602        C603   1.398       .  A
C602        H611   1.084       .  S
C603        C604   1.414       .  A
C603        S607   1.805       .  S
C604        C605   1.404       .  A
C605        C606   1.400       .  A
C605        H612   1.084       .  S
C606        S608   1.804       .  S
S607        H610   1.405       .  S
S608        H609   1.405       .  S
C613        C614   1.403       .  A
C613        C618   1.411       .  A
C614        C615   1.400       .  A
C614        H623   1.084       .  S
C615        C616   1.413       .  A
C615        S619   1.804       .  S
C616        C617   1.402       .  A
C617        C618   1.398       .  A
C617        H624   1.084       .  S
C618        S620   1.804       .  S
S619        H622   1.405       .  S
S620        H621   1.405       .  S
C625        C626   1.403       .  A
C625        C630   1.414       .  A
C626        C627   1.398       .  A
C626        H635   1.084       .  S
C627        C628   1.413       .  A
C627        S631   1.803       .  S
C628        C629   1.403       .  A
C629        C630   1.399       .  A
C629        H636   1.084       .  S
C630        S632   1.805       .  S
S631        H634   1.407       .  S
S632        H633   1.406       .  S
C637        C638   1.403       .  A
C637        C642   1.414       .  A
C638        C639   1.399       .  A
C638        H647   1.084       .  S
C639        C640   1.413       .  A
C639        S643   1.804       .  S
C640        C641   1.403       .  A
C641        C642   1.401       .  A
C641        H648   1.084       .  S
C642        S644   1.804       .  S
S643        H646   1.405       .  S
S644        H645   1.406       .  S
C649        C650   1.404   1_554  A
C649        C654   1.416       .  A
C650        C651   1.401       .  A
C650        H659   1.084       .  S
C651        C652   1.415   1_556  A
C651        S655   1.805       .  S
C652        C653   1.404       .  A
C653        C654   1.401       .  A
C653        H660   1.084       .  S
C654        S656   1.806       .  S
S655        H658   1.406       .  S
S656        H657   1.401       .  S
C661        C662   1.404       .  A
C661        C666   1.414   1_556  A
C662        C663   1.399       .  A
C662        H671   1.084       .  S
C663        C664   1.411       .  A
C663        S667   1.804       .  S
C664        C665   1.403   1_556  A
C665        C666   1.399       .  A
C665        H672   1.084       .  S
C666        S668   1.805       .  S
S667        H670   1.406       .  S
S668        H669   1.406       .  S
C673        C674   1.403       .  A
C673        C678   1.413       .  A
C674        C675   1.401       .  A
C674        H683   1.084       .  S
C675        C676   1.414       .  A
C675        S679   1.804       .  S
C676        C677   1.402       .  A
C677        C678   1.399       .  A
C677        H684   1.084       .  S
C678        S680   1.803       .  S
S679        H682   1.406       .  S
S680        H681   1.406       .  S
C685        C686   1.402       .  A
C685        C690   1.412       .  A
C686        C687   1.400       .  A
C686        H695   1.084       .  S
C687        C688   1.414       .  A
C687        S691   1.804       .  S
C688        C689   1.403       .  A
C689        C690   1.399       .  A
C689        H696   1.084       .  S
C690        S692   1.804       .  S
S691        H694   1.405       .  S
S692        H693   1.406       .  S
C697        C698   1.404       .  A
C697        C702   1.415       .  A
C698        C699   1.400       .  A
C698        H707   1.084       .  S
C699        C700   1.414       .  A
C699        S703   1.803       .  S
C700        C701   1.404       .  A
C701        C702   1.401       .  A
C701        H708   1.083       .  S
C702        S704   1.805       .  S
S703        H706   1.406       .  S
S704        H705   1.406       .  S
C709        C710   1.401       .  A
C709        C714   1.413       .  A
C710        C711   1.398       .  A
C710        H719   1.084       .  S
C711        C712   1.411       .  A
C711        S715   1.800       .  S
C712        C713   1.403       .  A
C713        C714   1.401       .  A
C713        H720   1.084       .  S
C714        S716   1.804       .  S
S715        H718   1.406       .  S
S716        H717   1.405       .  S
C721        C722   1.404       .  A
C721        C726   1.414   1_556  A
C722        C723   1.399       .  A
C722        H731   1.084       .  S
C723        C724   1.412       .  A
C723        S727   1.803       .  S
C724        C725   1.403   1_556  A
C725        C726   1.399       .  A
C725        H732   1.083       .  S
C726        S728   1.805       .  S
S727        H730   1.406       .  S
S728        H729   1.406       .  S
C733        C734   1.406       .  A
C733        C738   1.415   1_556  A
C734        C735   1.402       .  A
C734        H743   1.084       .  S
C735        C736   1.414       .  A
C735        S739   1.804       .  S
C736        C737   1.403   1_556  A
C737        C738   1.400       .  A
C737        H744   1.084       .  S
C738        S740   1.804       .  S
S739        H742   1.407       .  S
S740        H741   1.406       .  S
C745        C746   1.403       .  A
C745        C750   1.413       .  A
C746        C747   1.400       .  A
C746        H755   1.084       .  S
C747        C748   1.413       .  A
C747        S751   1.804       .  S
C748        C749   1.402       .  A
C749        C750   1.398       .  A
C749        H756   1.084       .  S
C750        S752   1.804       .  S
S751        H754   1.405       .  S
S752        H753   1.405       .  S
C757        C758   1.403       .  A
C757        C762   1.414       .  A
C758        C759   1.400       .  A
C758        H767   1.084       .  S
C759        C760   1.413       .  A
C759        S763   1.804       .  S
C760        C761   1.403       .  A
C761        C762   1.400       .  A
C761        H768   1.084       .  S
C762        S764   1.805       .  S
S763        H766   1.406       .  S
S764        H765   1.405       .  S
