geometry optimzed in LAMMPS
_audit_creation_date              2020-11-30 
_audit_creation_method            'lammps2cif' 
_symmetry_space_group_name_H-M    'P1' 
_symmetry_Int_Tables_number       1 
_symmetry_cell_setting            triclinic 
loop_ 
_symmetry_equiv_pos_as_xyz 
  x,y,z 
_cell_length_a                    25.60556763 
_cell_length_b                    43.71635097656778 
_cell_length_c                    43.03577276626817 
_cell_angle_alpha                 89.83606286289132 
_cell_angle_beta                  90.07412333201691 
_cell_angle_gamma                 90.2379273487424 
loop_ 
_atom_site_label 
_atom_site_type_symbol 
_atom_site_fract_x 
_atom_site_fract_y 
_atom_site_fract_z 
_atom_site_charge 
O1          O  0.76067495  0.31370038  0.18459632    -0.84200
O2          O  0.73159498  0.36420417  0.21718067    -0.81300
C3          C  0.70270294  0.38281576  0.23138467     0.99200
O4          O  0.66698729  0.37341781  0.24951076    -0.81300
O5          O  0.58985610  0.35081331  0.21264021    -0.84000
C6          C  0.57046020  0.33466377  0.19146860     1.03800
O7          O  0.58507713  0.30752146  0.18766177    -0.76700
O8          O  0.68353001  0.31529773  0.16352261    -0.76900
C9          C  0.73198911  0.32039228  0.16174646     1.03700
O10         O  0.75548847  0.27837465  0.24116326    -0.84200
O11         O  0.73982006  0.33260627  0.27340236    -0.81300
C12         C  0.70696884  0.32995700  0.29496252     0.99200
O13         O  0.66124297  0.32056165  0.28908996    -0.81300
O14         O  0.57895879  0.29637335  0.25240036    -0.83900
C15         C  0.58395641  0.26829690  0.24476346     1.03700
O16         O  0.62064046  0.26032705  0.22689630    -0.76800
O17         O  0.71726989  0.26234959  0.19868597    -0.76900
C18         C  0.74739739  0.25752653  0.22148765     1.03700
Cr19       Cr  0.74171229  0.32136284  0.22908129     1.93700
Cr20       Cr  0.62766147  0.33339136  0.24913811     1.93200
Cr21       Cr  0.65344926  0.28834303  0.19635152     1.39100
O22         O  0.67392815  0.31407373  0.22551129    -1.22000
O23         O  0.24954541  0.32114815  0.08808109    -0.84200
O24         O  0.28427393  0.36825658  0.05204984    -0.81300
C25         C  0.31759107  0.38522040  0.03886776     0.99200
O26         O  0.35577701  0.37416884  0.02429775    -0.81300
O27         O  0.42159786  0.35012880  0.06881803    -0.84000
C28         C  0.43501408  0.33261660  0.09073799     1.03800
O29         O  0.42421480  0.30479353  0.08874196    -0.76700
O30         O  0.32532195  0.31798636  0.11126093    -0.76900
C31         C  0.27801712  0.32620673  0.11158185     1.03700
O32         O  0.25386512  0.28060483  0.03428646    -0.84200
O33         O  0.28015450  0.33101049  0.99822929    -0.81300
C34         C  0.31611348  0.32665067  0.47865686     0.99200
O35         O  0.36241465  0.32097623  0.98739019    -0.81300
O36         O  0.43497177  0.29529616  0.02882800    -0.83900
C37         C  0.42480481  0.26711541  0.03395210     1.03700
O38         O  0.38466452  0.25971466  0.04967552    -0.76800
O39         O  0.28688008  0.26641587  0.07851461    -0.76900
C40         C  0.25877784  0.26057727  0.05531215     1.03700
Cr41       Cr  0.27199541  0.32437651  0.04342465     1.93700
Cr42       Cr  0.39016294  0.33348373  0.02904497     1.93200
Cr43       Cr  0.35378260  0.28913564  0.07982453     1.39100
O44         O  0.33850818  0.31538132  0.04990145    -1.22000
O45         O  0.26121284  0.37698267  0.33907637    -0.84200
O46         O  0.22829051  0.32816242  0.30463029    -0.81300
C47         C  0.19787983  0.31061178  0.28992981     0.99200
O48         O  0.16206729  0.32112385  0.27266837    -0.81300
O49         O  0.08761815  0.34190780  0.31308053    -0.84000
C50         C  0.06987104  0.35744963  0.33521301     1.03800
O51         O  0.08583403  0.38424697  0.33995993    -0.76700
O52         O  0.18545017  0.37555090  0.36191931    -0.76900
C53         C  0.23385424  0.37013729  0.36247812     1.03700
O54         O  0.25299243  0.41495621  0.28422868    -0.84200
O55         O  0.23405213  0.36300834  0.24950318    -0.81300
C56         C  0.20054502  0.36924811  0.22899807     0.99200
O57         O  0.15451223  0.37629941  0.23674580    -0.81300
O58         O  0.07527703  0.39756989  0.27613234    -0.83900
C59         C  0.08143558  0.42537087  0.28423120     1.03700
O60         O  0.11916757  0.43284575  0.30175032    -0.76800
O61         O  0.21785913  0.42965286  0.32796251    -0.76900
C62         C  0.24585065  0.43534339  0.30445544     1.03700
Cr63       Cr  0.23898835  0.37151315  0.29460945     1.93700
Cr64       Cr  0.12354262  0.36088932  0.27650746     1.93200
Cr65       Cr  0.15374038  0.40367619  0.33061182     1.39100
O66         O  0.17172306  0.37895468  0.30006263    -1.22000
O67         O  0.74995191  0.38058505  0.43656400    -0.84200
O68         O  0.78257689  0.32970283  0.46713470    -0.81300
C69         C  0.81258425  0.31111695  0.48063545     0.99200
O70         O  0.84933227  0.32061698  0.49781632    -0.81300
O71         O  0.91955965  0.34549469  0.45659532    -0.84000
C72         C  0.93446875  0.36326555  0.43524195     1.03800
O73         O  0.92517127  0.39139167  0.43726887    -0.76700
O74         O  0.82597156  0.38550145  0.41412906    -0.76900
C75         C  0.77833878  0.37825285  0.41274282     1.03700
O76         O  0.75578664  0.41493290  0.49409670    -0.84200
O77         O  0.77830182  0.36102914  0.02486608    -0.81300
C78         C  0.81281489  0.36529231  0.04536974     0.99200
O79         O  0.85929520  0.37213873  0.03785823    -0.81300
O80         O  0.93775981  0.39720226  0.99926192    -0.83900
C81         C  0.93038654  0.42583355  0.49560522     1.03700
O82         O  0.89057472  0.43500591  0.48086077    -0.76800
O83         O  0.79274135  0.43443226  0.45271626    -0.76900
C84         C  0.76231528  0.43704322  0.47555060     1.03700
Cr85       Cr  0.77187841  0.37238774  0.48049831     1.93700
Cr86       Cr  0.88811078  0.36070103  0.49631955     1.93200
Cr87       Cr  0.85705568  0.40951016  0.44838115     1.39100
O88         O  0.83897012  0.38113199  0.47567914    -1.22000
O89         O  0.19382489  0.06187435  0.11308555    -0.84200
O90         O  0.09433048  0.05174047  0.09230133    -0.81300
C91         C  0.08228371  0.07950098  0.09342191     0.99200
O92         O  0.09492107  0.09702752  0.07136352    -0.81300
O93         O  0.16209267  0.12349469  0.02974538    -0.84000
C94         C  0.19892047  0.13397186  0.04624850     1.03800
O95         O  0.23088047  0.11622815  0.05950197    -0.76700
O96         O  0.26885324  0.06548837  0.08957701    -0.76900
C97         C  0.24131967  0.06952160  0.11347258     1.03700
O98         O  0.22904981  0.01235822  0.07488467    -0.84200
O99         O  0.12930012  0.00793509  0.04939572    -0.81300
C100        C  0.08887620  0.01613228  0.03456013     0.99200
O101        O  0.08069949  0.04448353  0.02942062    -0.81300
O102        O  0.15557387  0.07230639  0.98927038    -0.83900
C103        C  0.20021496  0.08241979  0.48178135     1.03700
O104        O  0.23544673  0.08564566  0.00211308    -0.76800
O105        O  0.26224444  0.03151223  0.03221087    -0.76900
C106        C  0.25792851  0.00964691  0.05131754     1.03700
Cr107      Cr  0.16313230  0.03550849  0.08021737     1.93700
Cr108      Cr  0.12680686  0.08243983  0.03147713     1.93200
Cr109      Cr  0.24427778  0.07370709  0.04604848     1.39100
O110        O  0.17794837  0.06347099  0.05175390    -1.22000
O111        O  0.83381928  0.06697894  0.16331463    -0.84200
O112        O  0.93107964  0.05800591  0.18888653    -0.81300
C113        C  0.94588007  0.08509368  0.19305475     0.99200
O114        O  0.92611914  0.10110594  0.21419713    -0.81300
O115        O  0.84802749  0.12287147  0.25136001    -0.84000
C116        C  0.81341097  0.13297777  0.23295150     1.03800
O117        O  0.78458430  0.11507886  0.21760639    -0.76700
O118        O  0.75596206  0.06558042  0.18333834    -0.76900
C119        C  0.78560958  0.07253677  0.16100643     1.03700
O120        O  0.79734980  0.01380643  0.19654721    -0.84200
O121        O  0.89258655  0.01051244  0.22651355    -0.81300
C122        C  0.92915722  0.01810835  0.24478062     0.99200
O123        O  0.93480854  0.04601788  0.25279422    -0.81300
O124        O  0.85185584  0.06865344  0.28893991    -0.83900
C125        C  0.80529617  0.07624745  0.29488537     1.03700
O126        O  0.77367126  0.08149001  0.27310718    -0.76800
O127        O  0.75826559  0.02846919  0.23895695    -0.76900
C128        C  0.76744988  0.00796666  0.21912010     1.03700
Cr129      Cr  0.86186512  0.03923461  0.19597879     1.93700
Cr130      Cr  0.88684231  0.08297064  0.24997881     1.93200
Cr131      Cr  0.77323541  0.07187915  0.22824753     1.39100
O132        O  0.84095093  0.06445396  0.22532679    -1.22000
O133        O  0.32241944  0.13180904  0.36182757    -0.84200
O134        O  0.42294299  0.13970871  0.34018433    -0.81300
C135        C  0.43234716  0.11165090  0.34223855     0.99200
O136        O  0.41817041  0.09413953  0.32060205    -0.81300
O137        O  0.35020311  0.07015758  0.27750651    -0.84000
C138        C  0.31154302  0.06054997  0.29304591     1.03800
O139        O  0.28036197  0.07876467  0.30580983    -0.76700
O140        O  0.24715748  0.12783882  0.33796668    -0.76900
C141        C  0.27438988  0.12521451  0.36236793     1.03700
O142        O  0.29024535  0.18157125  0.32474722    -0.84200
O143        O  0.38852913  0.18423732  0.29767248    -0.81300
C144        C  0.42894816  0.17585930  0.28313403     0.99200
O145        O  0.43739105  0.14735259  0.27906366    -0.81300
O146        O  0.36238743  0.12222632  0.23857122    -0.83900
C147        C  0.31639358  0.11587857  0.22977091     1.03700
O148        O  0.27990208  0.11226483  0.24917223    -0.76800
O149        O  0.25581805  0.16487893  0.28168735    -0.76900
C150        C  0.26141523  0.18586515  0.30148246     1.03700
Cr151      Cr  0.35464700  0.15729242  0.32888762     1.93700
Cr152      Cr  0.38859144  0.11022625  0.28050515     1.93200
Cr153      Cr  0.27105462  0.12177248  0.29389270     1.39100
O154        O  0.33803527  0.12997244  0.30042202    -1.22000
O155        O  0.67633149  0.12849175  0.41314290    -0.84200
O156        O  0.57945945  0.13582689  0.43897360    -0.81300
C157        C  0.56564807  0.10847151  0.44311665     0.99200
O158        O  0.58542064  0.09264414  0.46452432    -0.81300
O159        O  0.66243794  0.07181156  0.50340687    -0.84000
C160        C  0.69594029  0.06096862  0.48491806     1.03800
O161        O  0.72351503  0.07829652  0.46804969    -0.76700
O162        O  0.75400914  0.12812134  0.43354342    -0.76900
C163        C  0.72431391  0.12237424  0.41091372     1.03700
O164        O  0.71241497  0.18148761  0.44734579    -0.84200
O165        O  0.61628563  0.18370979  0.47702081    -0.81300
C166        C  0.57890868  0.17564622  0.49451912     0.99200
O167        O  0.57354862  0.14762398  0.00213628    -0.81300
O168        O  0.65761299  0.12673972  0.03902937    -0.83900
C169        C  0.70404996  0.11880212  0.04506739     1.03700
O170        O  0.73514031  0.11251659  0.02333805    -0.76800
O171        O  0.75352101  0.16496321  0.48869165    -0.76900
C172        C  0.74457738  0.18600606  0.46922211     1.03700
Cr173      Cr  0.64802322  0.15549202  0.44631265     1.93700
Cr174      Cr  0.62317791  0.11142705  0.50035873     1.93200
Cr175      Cr  0.73644897  0.12172200  0.47834571     1.39100
O176        O  0.66904311  0.12992422  0.47554214    -1.22000
C177        C  0.44353589  0.11346352  0.39925190     0.24700
C178        C  0.45891672  0.10081509  0.37063218    -0.23400
C179        C  0.50408658  0.08270678  0.36952014     0.19600
C180        C  0.53658552  0.08068074  0.39582148     0.24600
C181        C  0.52399703  0.09684119  0.42301198    -0.23300
C182        C  0.47569786  0.11139499  0.42516282     0.19600
F183        F  0.46290942  0.12718929  0.45120136    -0.13300
F184        F  0.39978577  0.13062904  0.40149018    -0.15700
F185        F  0.58282596  0.06581512  0.39375039    -0.15700
F186        F  0.51972570  0.07008398  0.34231552    -0.13300
C187        C  0.73287590  0.08168394  0.33320946     0.24700
C188        C  0.78690551  0.08247304  0.32694323    -0.23400
C189        C  0.82068959  0.09482669  0.34945380     0.19600
C190        C  0.80057877  0.10753994  0.37685126     0.24600
C191        C  0.74611838  0.10840421  0.38219075    -0.23300
C192        C  0.71276717  0.09479902  0.36018685     0.19600
F193        F  0.66030316  0.09453313  0.36437646    -0.13300
F194        F  0.69894067  0.06905257  0.31256748    -0.15700
F195        F  0.83449149  0.12021979  0.39743930    -0.15700
F196        F  0.87286600  0.09648659  0.34410542    -0.13300
C197        C  0.77725683  0.11192255  0.08252537     0.24700
C198        C  0.72296151  0.11314169  0.07717134    -0.23400
C199        C  0.68904099  0.10314484  0.10079740     0.19600
C200        C  0.70916098  0.09041665  0.12830607     0.24600
C201        C  0.76367339  0.08709298  0.13253063    -0.23300
C202        C  0.79725618  0.09863923  0.10946903     0.19600
F203        F  0.84984242  0.09644425  0.11239908    -0.13300
F204        F  0.81155068  0.12247143  0.06090148    -0.15700
F205        F  0.67501363  0.08026568  0.15017202    -0.15700
F206        F  0.63650478  0.10385994  0.09656945    -0.13300
C207        C  0.33436099  0.08921300  0.17947076     0.24700
C208        C  0.30375770  0.10959986  0.19688247    -0.23400
C209        C  0.25466671  0.11838999  0.18527528     0.19600
C210        C  0.23501780  0.10560357  0.15794680     0.24600
C211        C  0.26414919  0.08388366  0.14145929    -0.23300
C212        C  0.31478704  0.07656914  0.15180774     0.19600
F213        F  0.34386449  0.05569172  0.13629042    -0.13300
F214        F  0.38116019  0.07953761  0.19054589    -0.15700
F215        F  0.18720212  0.11437861  0.14764823    -0.15700
F216        F  0.22468810  0.13852625  0.20120913    -0.13300
C217        C  0.19572479  0.08030972  0.42262992     0.24700
C218        C  0.21298061  0.09423713  0.45023416    -0.23400
C219        C  0.24658834  0.11988912  0.44810096     0.19600
C220        C  0.26507917  0.13014541  0.41950986     0.24600
C221        C  0.25008317  0.11549127  0.39202514    -0.23300
C222        C  0.21411323  0.09094688  0.39362742     0.19600
F223        F  0.19891267  0.07633018  0.36731955    -0.13300
F224        F  0.16337817  0.05566624  0.42376996    -0.15700
F225        F  0.29771729  0.15471310  0.41872285    -0.15700
F226        F  0.26203676  0.13523671  0.47396559    -0.13300
C227        C  0.06920897  0.07890757  0.15054256     0.24700
C228        C  0.05406294  0.09027102  0.12121296    -0.23400
C229        C  0.00855322  0.10796733  0.11890087     0.19600
C230        C  0.97555524  0.11090310  0.14479307     0.24600
C231        C  0.98803707  0.09624114  0.17296171    -0.23300
C232        C  0.03663386  0.08209449  0.17619024     0.19600
F233        F  0.04951376  0.06792672  0.20326405    -0.13300
F234        F  0.11355922  0.06234855  0.15391817    -0.15700
F235        F  0.92889691  0.12512301  0.14148643    -0.15700
F236        F  0.99317528  0.11935322  0.09099643    -0.13300
C237        C  0.73112319  0.48054441  0.50855654     0.24700
C238        C  0.73508498  0.46647406  0.47932274    -0.23400
C239        C  0.71998295  0.48285532  0.45256484     0.19600
C240        C  0.70346696  0.01281255  0.45507063     0.24600
C241        C  0.70451809  0.02782351  0.48376935    -0.23300
C242        C  0.71555195  0.51120122  0.51068126     0.19600
F243        F  0.71534126  0.52510739  0.53885750    -0.13300
F244        F  0.74636542  0.46551153  0.53466080    -0.15700
F245        F  0.68887580  0.02798787  0.42889246    -0.15700
F246        F  0.72147983  0.46952081  0.42410807    -0.13300
C247        C  0.78522710  0.26672236  0.44832045     0.24700
C248        C  0.80308638  0.27797545  0.47693700    -0.23400
C249        C  0.80851608  0.25763427  0.50214238     0.19600
C250        C  0.79225824  0.22705441  0.49939004     0.24600
C251        C  0.77062743  0.21637108  0.47129154    -0.23300
C252        C  0.76967671  0.23626340  0.44541140     0.19600
F253        F  0.75266199  0.22647863  0.41721744    -0.13300
F254        F  0.78231155  0.28537920  0.42308670    -0.15700
F255        F  0.79511905  0.20849276  0.52467432    -0.15700
F256        F  0.82641256  0.26779021  0.52999459    -0.13300
C257        C  0.01857297  0.43944885  0.01952601     0.24700
C258        C  0.97029002  0.44875766  0.00673402    -0.23400
C259        C  0.96175662  0.48045710  0.50312092     0.19600
C260        C  0.99864230  0.00185515  0.51477196     0.24600
C261        C  0.04847870  0.49275909  0.02407832    -0.23300
C262        C  0.05696863  0.46105821  0.02805148     0.19600
F263        F  0.10261951  0.45070609  0.04014766    -0.13300
F264        F  0.02922980  0.40930609  0.02359536    -0.15700
F265        F  0.98585614  0.03193511  0.51343202    -0.15700
F266        F  0.91606665  0.49100413  0.49125611    -0.13300
C267        C  0.28325189  0.47803466  0.27205390     0.24700
C268        C  0.26955446  0.46607709  0.30138539    -0.23400
C269        C  0.27422897  0.48490809  0.32780207     0.19600
C270        C  0.28826083  0.01568089  0.32533130     0.24600
C271        C  0.30144276  0.02764781  0.29613155    -0.23300
C272        C  0.29902472  0.50861922  0.26912494     0.19600
F273        F  0.30896138  0.52026696  0.24043909    -0.13300
F274        F  0.27835601  0.46077913  0.24602110    -0.15700
F275        F  0.28993695  0.03364242  0.35103020    -0.15700
F276        F  0.26314532  0.47407907  0.35667734    -0.13300
C277        C  0.20093429  0.25767264  0.26742855     0.24700
C278        C  0.20537612  0.27748084  0.29302995    -0.23400
C279        C  0.22077451  0.26579209  0.32191502     0.19600
C280        C  0.23510134  0.23538880  0.32488378     0.24600
C281        C  0.23553072  0.21592545  0.29875192    -0.23300
C282        C  0.21628527  0.22700244  0.27021369     0.19600
F283        F  0.21511580  0.20881138  0.24470930    -0.13300
F284        F  0.18512613  0.26843760  0.23934276    -0.15700
F285        F  0.25039164  0.22543141  0.35340738    -0.15700
F286        F  0.22310223  0.28409136  0.34736051    -0.13300
C287        C  0.00525648  0.44264679  0.25080119     0.24700
C288        C  0.04257859  0.44910481  0.27406254    -0.23400
C289        C  0.04098638  0.47819125  0.28825258     0.19600
C290        C  0.00372686  0.50008642  0.27931179     0.24600
C291        C  0.96671367  0.49373265  0.25583550    -0.23300
C292        C  0.96802902  0.46452518  0.24185604     0.19600
F293        F  0.93385635  0.45706379  0.21892009    -0.13300
F294        F  0.00495768  0.41516530  0.23617888    -0.15700
F295        F  0.00544999  0.02832039  0.29311266    -0.15700
F296        F  0.07505272  0.48552250  0.31128454    -0.13300
C297        C  0.97990245  0.36194096  0.35250891     0.24700
C298        C  0.02736988  0.34651188  0.35518494    -0.23400
C299        C  0.03867240  0.33054015  0.38281080     0.19600
C300        C  0.00585801  0.33340826  0.40882947     0.24600
C301        C  0.96188080  0.35245446  0.40717562    -0.23300
C302        C  0.94777935  0.36517052  0.37827623     0.19600
F303        F  0.90524573  0.38325064  0.37552530    -0.13300
F304        F  0.96811866  0.37745883  0.32602271    -0.15700
F305        F  0.02009225  0.32049599  0.43626461    -0.15700
F306        F  0.08388755  0.31477664  0.38550378    -0.13300
C307        C  0.21154183  0.21836312  0.02627889     0.24700
C308        C  0.23383735  0.22981810  0.05383930    -0.23400
C309        C  0.23739679  0.21012752  0.07990818     0.19600
C310        C  0.22434586  0.17929790  0.07750253     0.24600
C311        C  0.20594987  0.16735886  0.04938219    -0.23300
C312        C  0.19724786  0.18736986  0.02417094     0.19600
F313        F  0.17788482  0.17660133  0.99691433    -0.13300
F314        F  0.20584775  0.23664552  0.00096370    -0.15700
F315        F  0.23043371  0.16094007  0.10275629    -0.15700
F316        F  0.25526195  0.22030507  0.10777815    -0.13300
C317        C  0.30846259  0.43709522  0.01440508     0.24700
C318        C  0.31196053  0.41851950  0.04108510    -0.23400
C319        C  0.30712469  0.43169238  0.07048909     0.19600
C320        C  0.29483223  0.46250105  0.07335503     0.24600
C321        C  0.28532567  0.48057665  0.04675797    -0.23300
C322        C  0.29478307  0.46805914  0.01719880     0.19600
F323        F  0.28705919  0.48499261  0.99111284    -0.13300
F324        F  0.31451182  0.42477348  0.98570947    -0.15700
F325        F  0.29023454  0.97410954  0.10299236    -0.15700
F326        F  0.31302546  0.41441281  0.09653710    -0.13300
C327        C  0.45805022  0.21224383  0.03212618     0.24700
C328        C  0.46260541  0.24317476  0.02292036    -0.23400
C329        C  0.50556376  0.25138680  0.00403345     0.19600
C330        C  0.54308038  0.22974397  0.99523795     0.24600
C331        C  0.53919223  0.19891790  0.00487606    -0.23300
C332        C  0.49565314  0.19050461  0.02325575     0.19600
F333        F  0.48894884  0.16105772  0.53255212    -0.13300
F334        F  0.41742211  0.20285649  0.05006441    -0.15700
F335        F  0.58320967  0.23925665  0.97697283    -0.15700
F336        F  0.51165118  0.28058107  0.99376666    -0.13300
C337        C  0.26949554  0.36859894  0.18817712     0.24700
C338        C  0.21643242  0.36510685  0.19610288    -0.23400
C339        C  0.18223445  0.35212559  0.17413841     0.19600
C340        C  0.20170897  0.34034785  0.14607877     0.24600
C341        C  0.25577480  0.34128111  0.13959044    -0.23300
C342        C  0.28884483  0.35692180  0.16032363     0.19600
F343        F  0.34027584  0.36082417  0.15381495    -0.13300
F344        F  0.30335661  0.38236039  0.20810289    -0.15700
F345        F  0.16796477  0.32659455  0.12611611    -0.15700
F346        F  0.13070827  0.34872149  0.18075359    -0.13300
C347        C  0.33224765  0.35005417  0.42608120     0.24700
C348        C  0.30186952  0.33120470  0.44556509    -0.23400
C349        C  0.25127709  0.32292248  0.43581791     0.19600
C350        C  0.22982452  0.33525358  0.40870648     0.24600
C351        C  0.25854624  0.35584339  0.39026464    -0.23300
C352        C  0.31085265  0.36215086  0.39854335     0.19600
F353        F  0.34020076  0.38159081  0.38110347    -0.13300
F354        F  0.38091812  0.35886718  0.43494975    -0.15700
F355        F  0.18046621  0.32725846  0.40071558    -0.15700
F356        F  0.22141964  0.30396062  0.45354072    -0.13300
C357        C  0.79082728  0.17796751  0.20063007     0.24700
C358        C  0.80480804  0.16604208  0.22974649    -0.23400
C359        C  0.80624048  0.18546104  0.25572112     0.19600
C360        C  0.79008510  0.21593016  0.25296380     0.24600
C361        C  0.77265958  0.22729482  0.22411923    -0.23300
C362        C  0.77527546  0.20828241  0.19776924     0.19600
F363        F  0.76157562  0.21874598  0.16915474    -0.13300
F364        F  0.79130919  0.16002470  0.17489618    -0.15700
F365        F  0.78852447  0.23362464  0.27881524    -0.15700
F366        F  0.81978493  0.17442958  0.28412364    -0.13300
C367        C  0.73967686  0.42579292  0.20055911     0.24700
C368        C  0.71264726  0.41586654  0.22713458    -0.23400
C369        C  0.69841465  0.43751195  0.24976602     0.19600
C370        C  0.71412274  0.46816590  0.24673064     0.24600
C371        C  0.74417067  0.47758016  0.22097583    -0.23300
C372        C  0.75524158  0.45607899  0.19750918     0.19600
F373        F  0.78263187  0.46388950  0.17164045    -0.13300
F374        F  0.75200584  0.40602535  0.17740888    -0.15700
F375        F  0.70687219  0.98670536  0.27155067    -0.15700
F376        F  0.67140446  0.42885347  0.27547984    -0.13300
C377        C  0.45983128  0.23105846  0.27791710     0.24700
C378        C  0.46815426  0.19953742  0.27254382    -0.23400
C379        C  0.51544493  0.19101876  0.25819229     0.20400
C380        C  0.55307076  0.21309488  0.24978351     0.24600
C381        C  0.54488285  0.24459066  0.25537962    -0.23300
C382        C  0.49747329  0.25312230  0.26952871     0.19600
F383        F  0.48672106  0.28302699  0.27487902    -0.13300
F384        F  0.41499159  0.24086114  0.29134594    -0.15700
F385        F  0.59778313  0.20334715  0.23614477    -0.15700
F386        F  0.52580394  0.16116752  0.25226698    -0.13300
C387        C  0.75962858  0.36609099  0.32687557     0.24700
C388        C  0.72248243  0.34208635  0.32584068    -0.23400
C389        C  0.70077496  0.33149923  0.35388895     0.19600
C390        C  0.71761476  0.34386329  0.38238351     0.24600
C391        C  0.75613630  0.36706472  0.38311125    -0.23300
C392        C  0.77595707  0.37838435  0.35503199     0.19600
F393        F  0.81056728  0.40200133  0.35471099    -0.13300
F394        F  0.77967881  0.37843296  0.30041864    -0.15700
F395        F  0.69769724  0.33240167  0.40923863    -0.15700
F396        F  0.66469761  0.30866953  0.35381567    -0.13300
C397        C  0.80840135  0.33041412  0.12589545     0.24700
C398        C  0.75515187  0.33432826  0.13336563    -0.23400
C399        C  0.72416165  0.35248305  0.11372751     0.19600
C400        C  0.74483540  0.36502580  0.08653895     0.24600
C401        C  0.79696139  0.35942158  0.07792513    -0.23300
C402        C  0.82904096  0.34272929  0.09829889     0.19600
F403        F  0.87914012  0.33635177  0.09042680    -0.13300
F404        F  0.83987104  0.31328938  0.14438605    -0.15700
F405        F  0.71301524  0.38177285  0.06785418    -0.15700
F406        F  0.67341310  0.35794386  0.12061352    -0.13300
C407        C  0.44817795  0.32821045  0.14756311     0.24700
C408        C  0.46187074  0.34280208  0.11939996    -0.23400
C409        C  0.50580527  0.36218674  0.11887567     0.19600
C410        C  0.53899692  0.36357736  0.14496851     0.24600
C411        C  0.52810589  0.34570104  0.17146145    -0.23300
C412        C  0.48067959  0.32997374  0.17334389     0.19600
F413        F  0.46901346  0.31307215  0.19898718    -0.13300
F414        F  0.40581006  0.30956124  0.14938808    -0.15700
F415        F  0.58408124  0.37987003  0.14329767    -0.15700
F416        F  0.51968539  0.37686640  0.09229713    -0.13300
O417        O  0.76067185  0.31373386  0.68457947    -0.84200
O418        O  0.73157907  0.36423716  0.71716205    -0.81300
C419        C  0.70266701  0.38283606  0.73137017     0.99200
O420        O  0.66697087  0.37342413  0.74950184    -0.81300
O421        O  0.58987194  0.35080860  0.71261041    -0.84000
C422        C  0.57047254  0.33464765  0.69144853     1.03800
O423        O  0.58508623  0.30750160  0.68766029    -0.76700
O424        O  0.68351939  0.31529411  0.66351116    -0.76900
C425        C  0.73197056  0.32040813  0.66173112     1.03700
O426        O  0.75552225  0.27840205  0.74114423    -0.84200
O427        O  0.73981250  0.33262596  0.77338927    -0.81300
C428        C  0.70696063  0.32996293  0.79494884     0.99200
O429        O  0.66123906  0.32056274  0.78907123    -0.81300
O430        O  0.57897823  0.29636698  0.75236899    -0.83900
C431        C  0.58400518  0.26828948  0.74474377     1.03700
O432        O  0.62071403  0.26032333  0.72689525    -0.76800
O433        O  0.71732052  0.26236423  0.69866705    -0.76900
C434        C  0.74743907  0.25754750  0.72147372     1.03700
Cr435      Cr  0.74172028  0.32139079  0.72906419     1.93700
Cr436      Cr  0.62766451  0.33339211  0.74911707     1.93200
Cr437      Cr  0.65347827  0.28834057  0.69634251     1.39100
O438        O  0.67394440  0.31408336  0.72549476    -1.22000
O439        O  0.24959695  0.32113769  0.58805512    -0.84200
O440        O  0.28428983  0.36823233  0.55199291    -0.81300
C441        C  0.31759193  0.38519395  0.53879638     0.99200
O442        O  0.35579028  0.37414203  0.52423899    -0.81300
O443        O  0.42162231  0.35011768  0.56877690    -0.84000
C444        C  0.43505246  0.33260219  0.59069256     1.03800
O445        O  0.42427179  0.30477803  0.58868571    -0.76700
O446        O  0.32538077  0.31795823  0.61122562    -0.76900
C447        C  0.27807799  0.32618468  0.61155561     1.03700
O448        O  0.25388964  0.28057488  0.53427148    -0.84200
O449        O  0.28017817  0.33095814  0.49819067    -0.81300
C450        C  0.31609066  0.32670037  0.97869778     0.99200
O451        O  0.36244506  0.32094215  0.48734821    -0.81300
O452        O  0.43502518  0.29528468  0.52879042    -0.83900
C453        C  0.42487870  0.26710200  0.53391626     1.03700
O454        O  0.38472903  0.25969436  0.54962931    -0.76800
O455        O  0.28694560  0.26638663  0.57848831    -0.76900
C456        C  0.25881042  0.26055174  0.55529948     1.03700
Cr457      Cr  0.27202762  0.32434704  0.54339092     1.93700
Cr458      Cr  0.39019306  0.33346321  0.52900111     1.93200
Cr459      Cr  0.35384085  0.28911243  0.57978273     1.39100
O460        O  0.33854587  0.31535685  0.54986189    -1.22000
O461        O  0.26121110  0.37696613  0.83909241    -0.84200
O462        O  0.22824200  0.32812188  0.80467548    -0.81300
C463        C  0.19783607  0.31057904  0.78995925     0.99200
O464        O  0.16205256  0.32110304  0.77268293    -0.81300
O465        O  0.08759384  0.34191681  0.81306787    -0.84000
C466        C  0.06986553  0.35745686  0.83520695     1.03800
O467        O  0.08584183  0.38425119  0.83995845    -0.76700
O468        O  0.18544412  0.37555157  0.86192879    -0.76900
C469        C  0.23384736  0.37014086  0.86249715     1.03700
O470        O  0.25302869  0.41490760  0.78422264    -0.84200
O471        O  0.23407180  0.36293507  0.74952633    -0.81300
C472        C  0.20059881  0.36919238  0.72900681     0.99200
O473        O  0.15457133  0.37627262  0.73674010    -0.81300
O474        O  0.07532095  0.39757602  0.77610543    -0.83900
C475        C  0.08148733  0.42537456  0.78421174     1.03700
O476        O  0.11920647  0.43284197  0.80174204    -0.76800
O477        O  0.21789097  0.42963822  0.82794622    -0.76900
C478        C  0.24588190  0.43531129  0.80443353     1.03700
Cr479      Cr  0.23899150  0.37146969  0.79462868     1.93700
Cr480      Cr  0.12355638  0.36088126  0.77650045     1.93200
Cr481      Cr  0.15375758  0.40367088  0.83060781     1.39100
O482        O  0.17173287  0.37893659  0.80006591    -1.22000
O483        O  0.74993023  0.38055731  0.93658110    -0.84200
O484        O  0.78253994  0.32969955  0.96718795    -0.81300
C485        C  0.81256640  0.31111357  0.98067203     0.99200
O486        O  0.84934205  0.32061071  0.99783349    -0.81300
O487        O  0.91954471  0.34547577  0.95659080    -0.84000
C488        C  0.93445476  0.36324141  0.93523376     1.03800
O489        O  0.92515912  0.39136695  0.93725528    -0.76700
O490        O  0.82594703  0.38545758  0.91413666    -0.76900
C491        C  0.77830913  0.37821989  0.91275537     1.03700
O492        O  0.75580072  0.41494990  0.99409322    -0.84200
O493        O  0.77829069  0.36099244  0.52482616    -0.81300
C494        C  0.81276769  0.36528323  0.54534358     0.99200
O495        O  0.85924830  0.37214588  0.53784947    -0.81300
O496        O  0.93774757  0.39720384  0.49928743    -0.83900
C497        C  0.93040454  0.42583116  0.99556006     1.03700
O498        O  0.89058062  0.43499840  0.98082437    -0.76800
O499        O  0.79274184  0.43440920  0.95269253    -0.76900
C500        C  0.76232635  0.43704462  0.97552781     1.03700
Cr501      Cr  0.77187248  0.37239297  0.98052459     1.93700
Cr502      Cr  0.88812181  0.36069379  0.99631876     1.93200
Cr503      Cr  0.85704692  0.40948485  0.94836759     1.39100
O504        O  0.83896821  0.38112316  0.97568578    -1.22000
O505        O  0.19386435  0.06188867  0.61308118    -0.84200
O506        O  0.09434673  0.05175315  0.59235832    -0.81300
C507        C  0.08230124  0.07951448  0.59347661     0.99200
O508        O  0.09490536  0.09703429  0.57140680    -0.81300
O509        O  0.16200846  0.12349191  0.52975236    -0.84000
C510        C  0.19885149  0.13396891  0.54624393     1.03800
O511        O  0.23083700  0.11622541  0.55947542    -0.76700
O512        O  0.26886088  0.06549353  0.58953408    -0.76900
C513        C  0.24135918  0.06953304  0.61344228     1.03700
O514        O  0.22904032  0.01236683  0.57487162    -0.84200
O515        O  0.12925952  0.00793780  0.54944350    -0.81300
C516        C  0.08881514  0.01612947  0.53462685     0.99200
O517        O  0.08062258  0.04447899  0.52948802    -0.81300
O518        O  0.15542926  0.07228812  0.48929157    -0.83900
C519        C  0.20037924  0.08243001  0.98178793     1.03700
O520        O  0.23531802  0.08564819  0.50208314    -0.76800
O521        O  0.26215840  0.03150960  0.53217109    -0.76900
C522        C  0.25787154  0.00964760  0.55128448     1.03700
Cr523      Cr  0.16312952  0.03551686  0.58023860     1.93700
Cr524      Cr  0.12672778  0.08243611  0.53150908     1.93200
Cr525      Cr  0.24421893  0.07370729  0.54601581     1.39100
O526        O  0.17789993  0.06347276  0.55176123    -1.22000
O527        O  0.83391614  0.06698681  0.66335582    -0.84200
O528        O  0.93116686  0.05804011  0.68895008    -0.81300
C529        C  0.94595308  0.08513090  0.69311730     0.99200
O530        O  0.92616725  0.10114471  0.71424958    -0.81300
O531        O  0.84805079  0.12289695  0.75140148    -0.84000
C532        C  0.81343627  0.13299535  0.73298657     1.03800
O533        O  0.78462278  0.11508970  0.71764086    -0.76700
O534        O  0.75604908  0.06558337  0.68336808    -0.76900
C535        C  0.78570433  0.07253189  0.66103559     1.03700
O536        O  0.79745674  0.01381177  0.69659385    -0.84200
O537        O  0.89267643  0.01054671  0.72657534    -0.81300
C538        C  0.92925849  0.01814931  0.74483008     0.99200
O539        O  0.93489067  0.04605982  0.75284782    -0.81300
O540        O  0.85190563  0.06868586  0.78898659    -0.83900
C541        C  0.80533995  0.07627064  0.79492860     1.03700
O542        O  0.77370774  0.08149795  0.77314892    -0.76800
O543        O  0.75834657  0.02847261  0.73899544    -0.76900
C544        C  0.76755167  0.00796817  0.71916384     1.03700
Cr545      Cr  0.86195798  0.03925580  0.69603202     1.93700
Cr546      Cr  0.88689327  0.08300396  0.75002778     1.93200
Cr547      Cr  0.77329629  0.07188661  0.72828431     1.39100
O548        O  0.84101806  0.06447547  0.72537311    -1.22000
O549        O  0.32253690  0.13181725  0.86177323    -0.84200
O550        O  0.42303675  0.13971348  0.84010049    -0.81300
C551        C  0.43241267  0.11165392  0.84218221     0.99200
O552        O  0.41822817  0.09413099  0.82055746    -0.81300
O553        O  0.35027182  0.07014406  0.77745547    -0.84000
C554        C  0.31162634  0.06053237  0.79300402     1.03800
O555        O  0.28045431  0.07874369  0.80577997    -0.76700
O556        O  0.24725407  0.12782004  0.83794312    -0.76900
C557        C  0.27451215  0.12521644  0.86233772     1.03700
O558        O  0.29031521  0.18157094  0.82469499    -0.84200
O559        O  0.38856842  0.18422462  0.79758487    -0.81300
C560        C  0.42899929  0.17584523  0.78306072     0.99200
O561        O  0.43745895  0.14733786  0.77900924    -0.81300
O562        O  0.36245229  0.12221380  0.73852875    -0.83900
C563        C  0.31645808  0.11586613  0.72973130     1.03700
O564        O  0.27996535  0.11224771  0.74913348    -0.76800
O565        O  0.25584568  0.16485399  0.78165526    -0.76900
C566        C  0.26143761  0.18584442  0.80144653     1.03700
Cr567      Cr  0.35472630  0.15729319  0.82882070     1.93700
Cr568      Cr  0.38865792  0.11021283  0.78045674     1.93200
Cr569      Cr  0.27112231  0.12175135  0.79385959     1.39100
O570        O  0.33810232  0.12996232  0.80037129    -1.22000
O571        O  0.67626017  0.12850525  0.91314535    -0.84200
O572        O  0.57937565  0.13581815  0.93896481    -0.81300
C573        C  0.56556649  0.10846294  0.94311586     0.99200
O574        O  0.58533075  0.09264231  0.96453075    -0.81300
O575        O  0.66234789  0.07182444  0.00341693    -0.84000
C576        C  0.69584075  0.06098573  0.98491792     1.03800
O577        O  0.72340788  0.07832053  0.96805221    -0.76700
O578        O  0.75392405  0.12815368  0.93356315    -0.76900
C579        C  0.72424896  0.12240078  0.91092640     1.03700
O580        O  0.71229931  0.18151087  0.94736734    -0.84200
O581        O  0.61614895  0.18371320  0.97701474    -0.81300
C582        C  0.57877217  0.17564758  0.99451190     0.99200
O583        O  0.57367767  0.14762219  0.50214021    -0.81300
O584        O  0.65774046  0.12671320  0.53902555    -0.83900
C585        C  0.70417716  0.11877132  0.54506154     1.03700
O586        O  0.73527495  0.11250258  0.52333008    -0.76800
O587        O  0.75339590  0.16497996  0.98871526    -0.76900
C588        C  0.74446100  0.18602445  0.96924656     1.03700
Cr589      Cr  0.64791934  0.15550096  0.94631396     1.93700
Cr590      Cr  0.62306861  0.11143699  0.00036358     1.93200
Cr591      Cr  0.73633649  0.12174202  0.97835895     1.39100
O592        O  0.66893247  0.12993823  0.97554789    -1.22000
C593        C  0.44355340  0.11351886  0.89919620     0.24700
C594        C  0.45893441  0.10082901  0.87059607    -0.23400
C595        C  0.50404675  0.08266878  0.86952460     0.19600
C596        C  0.53650109  0.08063263  0.89584520     0.24600
C597        C  0.52391726  0.09682874  0.92301455    -0.23300
C598        C  0.47565423  0.11142595  0.92512912     0.19600
F599        F  0.46286478  0.12724796  0.95115030    -0.13300
F600        F  0.39987888  0.13075131  0.90139463    -0.15700
F601        F  0.58270095  0.06571912  0.89381277    -0.15700
F602        F  0.51968421  0.07000271  0.84234061    -0.13300
C603        C  0.73294031  0.08160306  0.83328328     0.24700
C604        C  0.78695349  0.08250301  0.82698510    -0.23400
C605        C  0.82069298  0.09497712  0.84945096     0.19600
C606        C  0.80054454  0.10769377  0.87683663     0.24600
C607        C  0.74608939  0.10843716  0.88221056    -0.23300
C608        C  0.71279057  0.09471404  0.86025410     0.19600
F609        F  0.66033930  0.09431991  0.86449026    -0.13300
F610        F  0.69906074  0.06886080  0.81267957    -0.15700
F611        F  0.83440366  0.12049984  0.89737546    -0.15700
F612        F  0.87284720  0.09675579  0.84406257    -0.13300
C613        C  0.77736683  0.11190794  0.58254266     0.24700
C614        C  0.72307514  0.11309118  0.57716629    -0.23400
C615        C  0.68914831  0.10304896  0.60077005     0.19600
C616        C  0.70926061  0.09032975  0.62828511     0.24600
C617        C  0.76377485  0.08706318  0.63254292    -0.23300
C618        C  0.79736204  0.09864112  0.60949819     0.19600
F619        F  0.84995049  0.09650018  0.61246070    -0.13300
F620        F  0.81166263  0.12248503  0.56093398    -0.15700
F621        F  0.67510726  0.08013045  0.65012471    -0.15700
F622        F  0.63661663  0.10370961  0.59651216    -0.13300
C623        C  0.33440924  0.08918395  0.67944197     0.24700
C624        C  0.30383162  0.10959350  0.69684283    -0.23400
C625        C  0.25476949  0.11841769  0.68522308     0.19600
C626        C  0.23511520  0.10564035  0.65789252     0.24600
C627        C  0.26421660  0.08389845  0.64141606    -0.23300
C628        C  0.31483163  0.07655023  0.65177580     0.19600
F629        F  0.34387246  0.05564634  0.63627082    -0.13300
F630        F  0.38117819  0.07947556  0.69053269    -0.15700
F631        F  0.18731752  0.11443903  0.64758487    -0.15700
F632        F  0.22482170  0.13857641  0.70114796    -0.13300
C633        C  0.19570368  0.08042788  0.92263174     0.24700
C634        C  0.21321976  0.09423513  0.95024224    -0.23400
C635        C  0.24707243  0.11977886  0.94811000     0.19600
C636        C  0.26551296  0.13004289  0.91951151     0.24600
C637        C  0.25025516  0.11549865  0.89201504    -0.23300
C638        C  0.21407090  0.09106262  0.89362297     0.19600
F639        F  0.19861726  0.07654756  0.86730842    -0.13300
F640        F  0.16308892  0.05590568  0.92376477    -0.15700
F641        F  0.29834298  0.15452282  0.91873214    -0.15700
F642        F  0.26278263  0.13503184  0.97397805    -0.13300
C643        C  0.06926622  0.07892617  0.65060053     0.24700
C644        C  0.05411269  0.09029460  0.62127464    -0.23400
C645        C  0.00862642  0.10801316  0.61897358     0.19600
C646        C  0.97564338  0.11095746  0.64487091     0.24600
C647        C  0.98811767  0.09628111  0.67303253    -0.23300
C648        C  0.03670457  0.08212025  0.67625338     0.19600
F649        F  0.04958163  0.06794477  0.70332356    -0.13300
F650        F  0.11360874  0.06235758  0.65396694    -0.15700
F651        F  0.92899983  0.12519649  0.64157412    -0.15700
F652        F  0.99325264  0.11941409  0.59107470    -0.13300
C653        C  0.73087061  0.48049319  0.00852940     0.24700
C654        C  0.73510913  0.46648505  0.97927784    -0.23400
C655        C  0.72025394  0.48292546  0.95250665     0.19600
C656        C  0.70357063  0.01287286  0.95501993     0.24600
C657        C  0.70441592  0.02783877  0.98374521    -0.23300
C658        C  0.71527659  0.51114542  0.01066963     0.19600
F659        F  0.71479269  0.52498828  0.03887631    -0.13300
F660        F  0.74585466  0.46540330  0.03465289    -0.15700
F661        F  0.68916039  0.02808816  0.92882972    -0.15700
F662        F  0.72200059  0.46965672  0.92402337    -0.13300
C663        C  0.78518531  0.26673002  0.94835272     0.24700
C664        C  0.80305836  0.27797425  0.97696996    -0.23400
C665        C  0.80847533  0.25762919  0.00217226     0.19600
C666        C  0.79218257  0.22705568  0.99941788     0.24600
C667        C  0.77053171  0.21638326  0.97131974    -0.23300
C668        C  0.76960039  0.23627750  0.94544137     0.19600
F669        F  0.75257368  0.22650106  0.91724706    -0.13300
F670        F  0.78228777  0.28539059  0.92312089    -0.15700
F671        F  0.79503204  0.20849019  0.02469973    -0.15700
F672        F  0.82639284  0.26777646  0.03002301    -0.13300
C673        C  0.01840782  0.43943874  0.51977515     0.24700
C674        C  0.97025674  0.44875469  0.50681191    -0.23400
C675        C  0.96166387  0.48046263  0.00317715     0.19600
C676        C  0.99866236  0.00186717  0.01475671     0.24600
C677        C  0.04846946  0.49273259  0.52418453    -0.23300
C678        C  0.05681543  0.46103628  0.52831457     0.19600
F679        F  0.10232595  0.45067664  0.54059114    -0.13300
F680        F  0.02891599  0.40929964  0.52401401    -0.15700
F681        F  0.98585689  0.03194658  0.01347601    -0.15700
F682        F  0.91585173  0.49099868  0.99147053    -0.13300
C683        C  0.28310630  0.47802532  0.77199009     0.24700
C684        C  0.26958209  0.46604480  0.80134020    -0.23400
C685        C  0.27441039  0.48485554  0.82776179     0.19600
C686        C  0.28853541  0.01563947  0.82530467     0.24600
C687        C  0.30153699  0.02762960  0.79608601    -0.23300
C688        C  0.29888983  0.50860912  0.76905492     0.19600
F689        F  0.30865965  0.52028028  0.74035857    -0.13300
F690        F  0.27801933  0.46079466  0.74595260    -0.15700
F691        F  0.29035756  0.03358430  0.85101291    -0.15700
F692        F  0.26347619  0.47400370  0.85664837    -0.13300
C693        C  0.20097178  0.25766222  0.76741353     0.24700
C694        C  0.20531337  0.27744346  0.79304261    -0.23400
C695        C  0.22060440  0.26572327  0.82193504     0.19600
C696        C  0.23493792  0.23531674  0.82488571     0.24600
C697        C  0.23549259  0.21588826  0.79872875    -0.23300
C698        C  0.21633776  0.22699302  0.77018073     0.19600
F699        F  0.21529011  0.20883418  0.74465106    -0.13300
F700        F  0.18525977  0.26845619  0.73932008    -0.15700
F701        F  0.25011761  0.22532004  0.85341611    -0.15700
F702        F  0.22282468  0.28399545  0.84740341    -0.13300
C703        C  0.00550976  0.44271546  0.75066325     0.24700
C704        C  0.04265178  0.44911603  0.77403961    -0.23400
C705        C  0.04089613  0.47814729  0.78833832     0.19600
C706        C  0.00363486  0.50004303  0.77939879     0.24600
C707        C  0.96678322  0.49374098  0.75581960    -0.23300
C708        C  0.96828131  0.46459291  0.74172004     0.19600
F709        F  0.93430009  0.45719570  0.71866283    -0.13300
F710        F  0.00540345  0.41529582  0.73592215    -0.15700
F711        F  0.00571814  0.02838524  0.79306893    -0.15700
F712        F  0.07478856  0.48541567  0.81148120    -0.13300
C713        C  0.97988920  0.36192071  0.85250430     0.24700
C714        C  0.02737671  0.34651466  0.85518545    -0.23400
C715        C  0.03869726  0.33055175  0.88281405     0.19600
C716        C  0.00587496  0.33340626  0.90883029     0.24600
C717        C  0.96186819  0.35242754  0.90717009    -0.23300
C718        C  0.94775307  0.36513283  0.87826822     0.19600
F719        F  0.90519315  0.38319042  0.87551337    -0.13300
F720        F  0.96808970  0.37743132  0.82601636    -0.15700
F721        F  0.02012779  0.32050913  0.93626941    -0.15700
F722        F  0.08393398  0.31481091  0.88551171    -0.13300
C723        C  0.21141427  0.21836965  0.52630931     0.24700
C724        C  0.23383791  0.22980135  0.55384334    -0.23400
C725        C  0.23747333  0.21009789  0.57989788     0.19600
C726        C  0.22438618  0.17927464  0.57749295     0.24600
C727        C  0.20587693  0.16735474  0.54939012    -0.23300
C728        C  0.19707777  0.18738308  0.52420517     0.19600
F729        F  0.17757180  0.17663939  0.49697445    -0.13300
F730        F  0.20562772  0.23666843  0.50101390    -0.15700
F731        F  0.23055723  0.16090312  0.60272897    -0.15700
F732        F  0.25545286  0.22025416  0.60775003    -0.13300
C733        C  0.30821777  0.43703709  0.51430243     0.24700
C734        C  0.31194393  0.41849204  0.54099275    -0.23400
C735        C  0.30732115  0.43169267  0.57039588     0.19600
C736        C  0.29503963  0.46250339  0.57326373     0.24600
C737        C  0.28533921  0.48055265  0.54667463    -0.23300
C738        C  0.29455573  0.46800340  0.51710193     0.19600
F739        F  0.28660331  0.48490690  0.49102033    -0.13300
F740        F  0.31402912  0.42468252  0.48560344    -0.15700
F741        F  0.29030336  0.97413490  0.60294591    -0.15700
F742        F  0.31341536  0.41443673  0.59644396    -0.13300
C743        C  0.45806607  0.21221862  0.53201955     0.24700
C744        C  0.46271600  0.24317032  0.52290299    -0.23400
C745        C  0.50579901  0.25140818  0.50412574     0.19600
C746        C  0.54332805  0.22976695  0.49534328     0.24600
C747        C  0.53933029  0.19891705  0.50488437    -0.23300
C748        C  0.49568089  0.19048158  0.52316121     0.19600
F749        F  0.48902883  0.16110329  0.03274601    -0.13300
F750        F  0.41732201  0.20280520  0.54985036    -0.15700
F751        F  0.58358521  0.23930656  0.47719205    -0.15700
F752        F  0.51200702  0.28062795  0.49396001    -0.13300
C753        C  0.26961524  0.36846377  0.68822343     0.24700
C754        C  0.21652322  0.36504651  0.69611476    -0.23400
C755        C  0.18230176  0.35215685  0.67410666     0.19600
C756        C  0.20176814  0.34039345  0.64603634     0.24600
C757        C  0.25584997  0.34124983  0.63957873    -0.23300
C758        C  0.28895370  0.35680493  0.66035971     0.19600
F759        F  0.34040896  0.36064660  0.65388719    -0.13300
F760        F  0.30351255  0.38213984  0.70818802    -0.15700
F761        F  0.16798802  0.32673800  0.62602610    -0.15700
F762        F  0.13074560  0.34883612  0.68068067    -0.13300
C763        C  0.33220060  0.35015834  0.92614908     0.24700
C764        C  0.30185881  0.33126406  0.94560803    -0.23400
C765        C  0.25129837  0.32293941  0.93584117     0.19600
C766        C  0.22984594  0.33525438  0.90872218     0.24600
C767        C  0.25853450  0.35587428  0.89029723    -0.23300
C768        C  0.31080577  0.36224041  0.89860540     0.19600
F769        F  0.34011049  0.38172316  0.88118875    -0.13300
F770        F  0.38082468  0.35902851  0.93504960    -0.15700
F771        F  0.18052279  0.32721152  0.90070481    -0.15700
F772        F  0.22147155  0.30394861  0.95355039    -0.13300
C773        C  0.79091530  0.17798583  0.70064592     0.24700
C774        C  0.80482421  0.16605877  0.72977430    -0.23400
C775        C  0.80618152  0.18547498  0.75575173     0.19600
C776        C  0.79003367  0.21594434  0.75298182     0.24600
C777        C  0.77269167  0.22731374  0.72412166    -0.23300
C778        C  0.77536950  0.20830231  0.69777304     0.19600
F779        F  0.76173829  0.21876932  0.66914809    -0.13300
F780        F  0.79146693  0.16004380  0.67491209    -0.15700
F781        F  0.78839083  0.23363405  0.77883443    -0.15700
F782        F  0.81964331  0.17443968  0.78416658    -0.13300
C783        C  0.73926166  0.42585251  0.70044240     0.24700
C784        C  0.71255315  0.41589020  0.72711743    -0.23400
C785        C  0.69859330  0.43750078  0.74984129     0.19600
C786        C  0.71430153  0.46815310  0.74679883     0.24600
C787        C  0.74407112  0.47760104  0.72094196    -0.23300
C788        C  0.75480801  0.45614459  0.69737719     0.19600
F789        F  0.78184150  0.46400962  0.67139275    -0.13300
F790        F  0.75128578  0.40611145  0.67721147    -0.15700
F791        F  0.70707180  0.98667573  0.77162326    -0.15700
F792        F  0.67189012  0.42880192  0.77565459    -0.13300
C793        C  0.45989123  0.23104010  0.77788031     0.24700
C794        C  0.46820130  0.19952353  0.77247609    -0.23400
C795        C  0.51547740  0.19100986  0.75810603     0.20400
C796        C  0.55310703  0.21308792  0.74971262     0.24600
C797        C  0.54493383  0.24457921  0.75534377    -0.23300
C798        C  0.49753611  0.25310523  0.76950816     0.19600
F799        F  0.48680009  0.28300581  0.77489299    -0.13300
F800        F  0.41506447  0.24083734  0.79132839    -0.15700
F801        F  0.59780441  0.20334671  0.73605132    -0.15700
F802        F  0.52581543  0.16116292  0.75214515    -0.13300
C803        C  0.75963721  0.36607132  0.82688309     0.24700
C804        C  0.72246669  0.34208065  0.82583471    -0.23400
C805        C  0.70071844  0.33150362  0.85387696     0.19600
C806        C  0.71754827  0.34385999  0.88237839     0.24600
C807        C  0.75609744  0.36704517  0.88311900    -0.23300
C808        C  0.77594812  0.37836010  0.85504467     0.19600
F809        F  0.81057228  0.40196997  0.85473263    -0.13300
F810        F  0.77972938  0.37840626  0.80043406    -0.15700
F811        F  0.69759065  0.33240798  0.90922711    -0.15700
F812        F  0.66460715  0.30869234  0.85379173    -0.13300
C813        C  0.80840672  0.33055585  0.62593617     0.24700
C814        C  0.75510314  0.33434247  0.63334383    -0.23400
C815        C  0.72402127  0.35236698  0.61363307     0.19600
C816        C  0.74467546  0.36490915  0.58644247     0.24600
C817        C  0.79687108  0.35942476  0.57789195    -0.23300
C818        C  0.82902709  0.34286578  0.59833392     0.19600
F819        F  0.87920358  0.33661313  0.59053059    -0.13300
F820        F  0.83996564  0.31356200  0.64449769    -0.15700
F821        F  0.71277141  0.38153287  0.56769412    -0.15700
F822        F  0.67319884  0.35769412  0.62044305    -0.13300
C823        C  0.44822681  0.32815483  0.64751372     0.24700
C824        C  0.46189708  0.34277944  0.61936352    -0.23400
C825        C  0.50580355  0.36218745  0.61885864     0.19600
C826        C  0.53899227  0.36357236  0.64495468     0.24600
C827        C  0.52811630  0.34567378  0.67143511    -0.23300
C828        C  0.48071247  0.32992167  0.67330057     0.19600
F829        F  0.46905905  0.31299957  0.69893220    -0.13300
F830        F  0.40590063  0.30947080  0.64931934    -0.15700
F831        F  0.58406272  0.37988104  0.64329656    -0.15700
F832        F  0.51966392  0.37689715  0.59229363    -0.13300
O833        O  0.75966581  0.81285883  0.18451350    -0.84200
O834        O  0.73040676  0.86374168  0.21651856    -0.81300
C835        C  0.70202588  0.88235680  0.23106235     0.99200
O836        O  0.66664718  0.87298776  0.24940092    -0.81300
O837        O  0.58955927  0.85015177  0.21253528    -0.84000
C838        C  0.57002313  0.83373921  0.19160368     1.03800
O839        O  0.58423938  0.80643883  0.18832209    -0.76700
O840        O  0.68234194  0.81362303  0.16366098    -0.76900
C841        C  0.73069278  0.81897032  0.16162661     1.03700
O842        O  0.75554027  0.77835163  0.24156950    -0.84200
O843        O  0.73938479  0.83271867  0.27316665    -0.81300
C844        C  0.70687835  0.83004963  0.29492168     0.99200
O845        O  0.66106979  0.82057154  0.28929306    -0.81300
O846        O  0.57816299  0.79625909  0.25292822    -0.83900
C847        C  0.58324305  0.76806655  0.24582988     1.03700
O848        O  0.62013189  0.75977785  0.22826576    -0.76800
O849        O  0.71658249  0.76136228  0.19968591    -0.76900
C850        C  0.74752378  0.75719863  0.22224488     1.03700
Cr851      Cr  0.74105813  0.82106511  0.22894878     1.93700
Cr852      Cr  0.62721409  0.83306959  0.24927301     1.93200
Cr853      Cr  0.65264771  0.78727519  0.19711002     1.39100
O854        O  0.67333353  0.81348940  0.22576425    -1.22000
O855        O  0.24871122  0.82052987  0.08857754    -0.84200
O856        O  0.28362530  0.86788080  0.05294394    -0.81300
C857        C  0.31672843  0.88481605  0.03955171     0.99200
O858        O  0.35452496  0.87373576  0.02465780    -0.81300
O859        O  0.42079695  0.84954936  0.06888553    -0.84000
C860        C  0.43430280  0.83195818  0.09072548     1.03800
O861        O  0.42334378  0.80415536  0.08870626    -0.76700
O862        O  0.32461923  0.81719982  0.11151948    -0.76900
C863        C  0.27736261  0.82548690  0.11200236     1.03700
O864        O  0.25235170  0.78054648  0.03452378    -0.84200
O865        O  0.27867597  0.83115135  0.99878711    -0.81300
C866        C  0.31436955  0.82672621  0.47909842     0.99200
O867        O  0.36065016  0.82067341  0.98761522    -0.81300
O868        O  0.43379462  0.79488642  0.02865668    -0.83900
C869        C  0.42374902  0.76670477  0.03383187     1.03700
O870        O  0.38367940  0.75923132  0.04958147    -0.76800
O871        O  0.28594652  0.76581438  0.07846544    -0.76900
C872        C  0.25727243  0.76037039  0.05539520     1.03700
Cr873      Cr  0.27090085  0.82413670  0.04394524     1.93700
Cr874      Cr  0.38892919  0.83304900  0.02916597     1.93200
Cr875      Cr  0.35287091  0.78851918  0.07986555     1.39100
O876        O  0.33742639  0.81491496  0.05011841    -1.22000
O877        O  0.26005579  0.87715320  0.33955586    -0.84200
O878        O  0.22754727  0.82831741  0.30495968    -0.81300
C879        C  0.19728337  0.81079338  0.29011012     0.99200
O880        O  0.16165228  0.82134890  0.27274384    -0.81300
O881        O  0.08713884  0.84209945  0.31300886    -0.84000
C882        C  0.06916086  0.85766762  0.33503934     1.03800
O883        O  0.08475175  0.88457574  0.33961027    -0.76700
O884        O  0.18400141  0.87577404  0.36209574    -0.76900
C885        C  0.23240221  0.87039817  0.36286931     1.03700
O886        O  0.25256004  0.91516070  0.28466239    -0.84200
O887        O  0.23379724  0.86317365  0.24988348    -0.81300
C888        C  0.20044439  0.86934155  0.22926254     0.99200
O889        O  0.15440634  0.87651843  0.23685739    -0.81300
O890        O  0.07502429  0.89789381  0.27600717    -0.83900
C891        C  0.08153171  0.92572310  0.28394403     1.03700
O892        O  0.11914012  0.93310783  0.30156131    -0.76800
O893        O  0.21714957  0.92978086  0.32832178    -0.76900
C894        C  0.24527488  0.93553497  0.30489222     1.03700
Cr895      Cr  0.23840497  0.87168979  0.29499088     1.93700
Cr896      Cr  0.12315663  0.86112342  0.27651018     1.93200
Cr897      Cr  0.15289918  0.90391304  0.33063647     1.39100
O898        O  0.17114981  0.87915789  0.30019651    -1.22000
O899        O  0.75069098  0.88117382  0.43623968    -0.84200
O900        O  0.78308819  0.82993261  0.46634050    -0.81300
C901        C  0.81264476  0.81125383  0.48005701     0.99200
O902        O  0.84909514  0.82061674  0.49753780    -0.81300
O903        O  0.92017339  0.84558147  0.45695888    -0.84000
C904        C  0.93518421  0.86340250  0.43567015     1.03800
O905        O  0.92601735  0.89153104  0.43781576    -0.76700
O906        O  0.82694248  0.88579661  0.41414179    -0.76900
C907        C  0.77926639  0.87866456  0.41253902     1.03700
O908        O  0.75613004  0.91480731  0.49410098    -0.84200
O909        O  0.77777674  0.86045782  0.02425607    -0.81300
C910        C  0.81166313  0.86458656  0.04513303     0.99200
O911        O  0.85824595  0.87175364  0.03806969    -0.81300
O912        O  0.93774164  0.89708928  0.00005770    -0.83900
C913        C  0.93069288  0.92572521  0.49633346     1.03700
O914        O  0.89116704  0.93501995  0.48137528    -0.76800
O915        O  0.79348622  0.93463171  0.45296394    -0.76900
C916        C  0.76286762  0.93704346  0.47574262     1.03700
Cr917      Cr  0.77217697  0.87243274  0.48011434     1.93700
Cr918      Cr  0.88805394  0.86062060  0.49659685     1.93200
Cr919      Cr  0.85781340  0.90967424  0.44866443     1.39100
O920        O  0.83933294  0.88119927  0.47575883    -1.22000
O921        O  0.19353102  0.56192610  0.11263831    -0.84200
O922        O  0.09395861  0.55169004  0.09205990    -0.81300
C923        C  0.08207562  0.57946855  0.09340871     0.99200
O924        O  0.09438899  0.59705421  0.07132476    -0.81300
O925        O  0.16078878  0.62351718  0.02926872    -0.84000
C926        C  0.19741956  0.63409720  0.04582462     1.03800
O927        O  0.22965796  0.61646487  0.05898360    -0.76700
O928        O  0.26836254  0.56589684  0.08895832    -0.76900
C929        C  0.24091420  0.56982268  0.11291427     1.03700
O930        O  0.22876882  0.51253476  0.07427101    -0.84200
O931        O  0.12885625  0.50799971  0.04897317    -0.81300
C932        C  0.08830716  0.51617886  0.03424353     0.99200
O933        O  0.07981711  0.54452666  0.02941186    -0.81300
O934        O  0.15416245  0.57214428  0.98905192    -0.83900
C935        C  0.19876349  0.58229592  0.48136313     1.03700
O936        O  0.23407665  0.58586990  0.00150777    -0.76800
O937        O  0.26174806  0.53183866  0.03160407    -0.76900
C938        C  0.25765144  0.50993220  0.05068820     1.03700
Cr939      Cr  0.16275737  0.53555287  0.07980055     1.93700
Cr940      Cr  0.12578608  0.58244941  0.03127936     1.93200
Cr941      Cr  0.24341736  0.57400130  0.04546835     1.39100
O942        O  0.17722199  0.56357470  0.05135699    -1.22000
O943        O  0.83424602  0.56792364  0.16336471    -0.84200
O944        O  0.93153067  0.55825499  0.18893860    -0.81300
C945        C  0.94702640  0.58512539  0.19362779     0.99200
O946        O  0.92765627  0.60094951  0.21505550    -0.81300
O947        O  0.84949793  0.62288344  0.25208858    -0.84000
C948        C  0.81531265  0.63331423  0.23358918     1.03800
O949        O  0.78624976  0.61570512  0.21804194    -0.76700
O950        O  0.75648741  0.56655517  0.18349065    -0.76900
C951        C  0.78601907  0.57355832  0.16113331     1.03700
O952        O  0.79722441  0.51458785  0.19632863    -0.84200
O953        O  0.89274262  0.51049052  0.22613600    -0.81300
C954        C  0.92892145  0.51774197  0.24485734     0.99200
O955        O  0.93473903  0.54553374  0.25318983    -0.81300
O956        O  0.85193336  0.56829228  0.28925234    -0.83900
C957        C  0.80547740  0.57614501  0.29512542     1.03700
O958        O  0.77427219  0.58189991  0.27328229    -0.76800
O959        O  0.75819885  0.52911103  0.23881301    -0.76900
C960        C  0.76733200  0.50866434  0.21889349     1.03700
Cr961      Cr  0.86212007  0.53972037  0.19588411     1.93700
Cr962      Cr  0.88755742  0.58275163  0.25050632     1.93200
Cr963      Cr  0.77394084  0.57252394  0.22839969     1.39100
O964        O  0.84154896  0.56473982  0.22551160    -1.22000
O965        O  0.32059686  0.63140274  0.36159081    -0.84200
O966        O  0.42114657  0.63968515  0.34012298    -0.81300
C967        C  0.43070285  0.61165053  0.34215740     0.99200
O968        O  0.41663153  0.59414536  0.32047583    -0.81300
O969        O  0.34917421  0.57026278  0.27696690    -0.84000
C970        C  0.31047769  0.56049429  0.29234245     1.03800
O971        O  0.27895172  0.57855703  0.30503603    -0.76700
O972        O  0.24547974  0.62732974  0.33751832    -0.76900
C973        C  0.27261921  0.62465638  0.36195145     1.03700
O974        O  0.28823854  0.68128460  0.32481043    -0.84200
O975        O  0.38673448  0.68434245  0.29781862    -0.81300
C976        C  0.42735649  0.67600554  0.28343697     0.99200
O977        O  0.43582792  0.64752690  0.27925174    -0.81300
O978        O  0.36129004  0.62250383  0.23833179    -0.83900
C979        C  0.31533264  0.61623963  0.22936905     1.03700
O980        O  0.27870989  0.61253578  0.24866731    -0.76800
O981        O  0.25422113  0.66488141  0.28153935    -0.76900
C982        C  0.25970310  0.68576500  0.30146493     1.03700
Cr983      Cr  0.35278948  0.65714378  0.32883934     1.93700
Cr984      Cr  0.38724694  0.61035552  0.28032167     1.93200
Cr985      Cr  0.26955848  0.62167134  0.29344257     1.39100
O986        O  0.33645816  0.62992976  0.30019167    -1.22000
O987        O  0.67618944  0.62849022  0.41315935    -0.84200
O988        O  0.57913867  0.63619900  0.43875045    -0.81300
C989        C  0.56520509  0.60886531  0.44279569     0.99200
O990        O  0.58501250  0.59294906  0.46414261    -0.81300
O991        O  0.66188744  0.57197196  0.50322274    -0.84000
C992        C  0.69579507  0.56119513  0.48495306     1.03800
O993        O  0.72370458  0.57858160  0.46835283    -0.76700
O994        O  0.75381689  0.62822038  0.43364954    -0.76900
C995        C  0.72415543  0.62225980  0.41105105     1.03700
O996        O  0.71222331  0.68157702  0.44706001    -0.84200
O997        O  0.61600090  0.68402356  0.47674230    -0.81300
C998        C  0.57868818  0.67593787  0.49429821     0.99200
O999        O  0.57334029  0.64786455  0.00194323    -0.81300
O1000       O  0.65692678  0.62680844  0.03897901    -0.83900
C1001       C  0.70347801  0.61921475  0.04517622     1.03700
O1002       O  0.73492751  0.61309618  0.02357251    -0.76800
O1003       O  0.75293760  0.66537232  0.48864527    -0.76900
C1004       C  0.74411651  0.68627537  0.46901226     1.03700
Cr1005     Cr  0.64781190  0.65567675  0.44614064     1.93700
Cr1006     Cr  0.62271232  0.61162766  0.50014069     1.93200
Cr1007     Cr  0.73619958  0.62206579  0.47848328     1.39100
O1008       O  0.66873647  0.63015593  0.47547580    -1.22000
C1009       C  0.44253796  0.61385430  0.39911490     0.24700
C1010       C  0.45748946  0.60091511  0.37054231    -0.23400
C1011       C  0.50265499  0.58280179  0.36938931     0.19600
C1012       C  0.53559171  0.58105243  0.39553292     0.24600
C1013       C  0.52335637  0.59740232  0.42267591    -0.23300
C1014       C  0.47513902  0.61207730  0.42487180     0.19600
F1015       F  0.46277589  0.62819235  0.45077964    -0.13300
F1016       F  0.39873280  0.63100176  0.40140233    -0.15700
F1017       F  0.58190788  0.56628430  0.39329117    -0.15700
F1018       F  0.51784266  0.56987797  0.34224112    -0.13300
C1019       C  0.73253587  0.58214729  0.33302223     0.24700
C1020       C  0.78672939  0.58208521  0.32718597    -0.23400
C1021       C  0.82060074  0.59333093  0.35023831     0.19600
C1022       C  0.80049620  0.60603328  0.37764971     0.24600
C1023       C  0.74596712  0.60798586  0.38246832    -0.23300
C1024       C  0.71246326  0.59523608  0.36001809     0.19600
F1025       F  0.65989827  0.59584107  0.36375185    -0.13300
F1026       F  0.69842788  0.57043459  0.31192727    -0.15700
F1027       F  0.83460046  0.61758224  0.39880327    -0.15700
F1028       F  0.87299172  0.59390261  0.34545863    -0.13300
C1029       C  0.77633157  0.61427458  0.08326561     0.24700
C1030       C  0.72215658  0.61386195  0.07739103    -0.23400
C1031       C  0.68857423  0.60248284  0.10053757     0.19600
C1032       C  0.70908040  0.58990071  0.12801396     0.24600
C1033       C  0.76370829  0.58814844  0.13273140    -0.23300
C1034       C  0.79680732  0.60122366  0.11025528     0.19600
F1035       F  0.84939468  0.60083979  0.11386777    -0.13300
F1036       F  0.81007306  0.62626322  0.06210584    -0.15700
F1037       F  0.67529137  0.57823336  0.14929761    -0.15700
F1038       F  0.63616180  0.60160329  0.09577648    -0.13300
C1039       C  0.33396142  0.59020751  0.17875433     0.24700
C1040       C  0.30285103  0.61014551  0.19639118    -0.23400
C1041       C  0.25349553  0.61857254  0.18487544     0.19600
C1042       C  0.23404861  0.60574210  0.15751383     0.24600
C1043       C  0.26364883  0.58436076  0.14086087    -0.23300
C1044       C  0.31458566  0.57753120  0.15104443     0.19600
F1045       F  0.34419882  0.55706435  0.13532557    -0.13300
F1046       F  0.38113714  0.58096829  0.18964195    -0.15700
F1047       F  0.18593847  0.61412557  0.14736098    -0.15700
F1048       F  0.22304603  0.63836267  0.20094188    -0.13300
C1049       C  0.19620629  0.57870604  0.42232333     0.24700
C1050       C  0.21096781  0.59392634  0.44972032    -0.23400
C1051       C  0.24219996  0.62054026  0.44734998     0.19600
C1052       C  0.26074353  0.63068830  0.41873198     0.24600
C1053       C  0.24815676  0.61488943  0.39149667    -0.23300
C1054       C  0.21460570  0.58922093  0.39328678     0.19600
F1055       F  0.20199970  0.57343268  0.36720052    -0.13300
F1056       F  0.16661306  0.55291784  0.42377581    -0.15700
F1057       F  0.29122879  0.65617643  0.41765127    -0.15700
F1058       F  0.25552338  0.63679242  0.47304560    -0.13300
C1059       C  0.06971431  0.57838502  0.15061612     0.24700
C1060       C  0.05446881  0.59017349  0.12146974    -0.23400
C1061       C  0.00949406  0.60838198  0.11960503     0.19600
C1062       C  0.97699979  0.61140495  0.14571594     0.24600
C1063       C  0.98936259  0.59626969  0.17364182    -0.23300
C1064       C  0.03760178  0.58162944  0.17647062     0.19600
F1065       F  0.05047252  0.56707035  0.20333013    -0.13300
F1066       F  0.11366618  0.56139965  0.15361205    -0.15700
F1067       F  0.93082008  0.62622183  0.14284591    -0.15700
F1068       F  0.99405224  0.62023975  0.09191694    -0.13300
C1069       C  0.73344813  0.98081782  0.50875574     0.24700
C1070       C  0.73552824  0.96635814  0.47966374    -0.23400
C1071       C  0.71858397  0.98228460  0.45303475     0.19600
C1072       C  0.70506681  0.51340712  0.45468658     0.24600
C1073       C  0.70428621  0.52802307  0.48359523    -0.23300
C1074       C  0.71776576  0.01144085  0.51080656     0.19600
F1075       F  0.71937265  0.02575856  0.53875681    -0.13300
F1076       F  0.75072186  0.96621491  0.53466294    -0.15700
F1077       F  0.69242520  0.52898851  0.42839068    -0.15700
F1078       F  0.71852221  0.96852893  0.42476981    -0.13300
C1079       C  0.78454479  0.76695001  0.44787538     0.24700
C1080       C  0.80282196  0.77817525  0.47640501    -0.23400
C1081       C  0.80827022  0.75788752  0.50164798     0.19600
C1082       C  0.79184911  0.72735348  0.49899816     0.24600
C1083       C  0.77002043  0.71665832  0.47096889    -0.23300
C1084       C  0.76879802  0.73652867  0.44506868     0.19600
F1085       F  0.75130092  0.72677956  0.41696526    -0.13300
F1086       F  0.78136207  0.78559671  0.42264211    -0.15700
F1087       F  0.79474557  0.70885404  0.52432762    -0.15700
F1088       F  0.82633131  0.76806123  0.52945749    -0.13300
C1089       C  0.02046327  0.93929896  0.01812889     0.24700
C1090       C  0.97060818  0.94857561  0.00765945    -0.23400
C1091       C  0.96036006  0.98025239  0.50646152     0.19600
C1092       C  0.00006343  0.50197156  0.51156040     0.24600
C1093       C  0.04882682  0.99270247  0.02469206    -0.23300
C1094       C  0.05887363  0.96097580  0.02651729     0.19600
F1095       F  0.10617816  0.95069364  0.03616973    -0.13300
F1096       F  0.03273416  0.90915548  0.01980775    -0.15700
F1097       F  0.98904632  0.53207205  0.50752028    -0.15700
F1098       F  0.91286729  0.99066202  0.49730711    -0.13300
C1099       C  0.28410005  0.97806445  0.27278475     0.24700
C1100       C  0.26903249  0.96629196  0.30195932    -0.23400
C1101       C  0.27260148  0.98529423  0.32831679     0.19600
C1102       C  0.28938547  0.51537530  0.32474237     0.24600
C1103       C  0.30092726  0.52755890  0.29539844    -0.23300
C1104       C  0.30040968  0.00856788  0.26994174     0.19600
F1105       F  0.31172085  0.02001411  0.24135339    -0.13300
F1106       F  0.28011851  0.96070724  0.24676992    -0.15700
F1107       F  0.29221865  0.53319761  0.35050457    -0.15700
F1108       F  0.25994922  0.97473158  0.35706479    -0.13300
C1109       C  0.20018076  0.75789621  0.26748872     0.24700
C1110       C  0.20469835  0.77764122  0.29313969    -0.23400
C1111       C  0.21990011  0.76584179  0.32201493     0.19600
C1112       C  0.23387567  0.73537096  0.32494051     0.24600
C1113       C  0.23414368  0.71593830  0.29877416    -0.23300
C1114       C  0.21516886  0.72715924  0.27023163     0.19600
F1115       F  0.21389866  0.70902812  0.24468551    -0.13300
F1116       F  0.18462170  0.76877334  0.23939792    -0.15700
F1117       F  0.24898012  0.72531301  0.35346289    -0.15700
F1118       F  0.22231814  0.78408212  0.34750291    -0.13300
C1119       C  0.00589563  0.94321334  0.25030499     0.24700
C1120       C  0.04319178  0.94961796  0.27356796    -0.23400
C1121       C  0.04207950  0.97881930  0.28755900     0.19600
C1122       C  0.00487087  0.00075641  0.27866461     0.24600
C1123       C  0.96746462  0.99430122  0.25546224    -0.23300
C1124       C  0.96873510  0.96511702  0.24141828     0.19600
F1125       F  0.93457781  0.95769751  0.21845775    -0.13300
F1126       F  0.00554643  0.91575706  0.23563375    -0.15700
F1127       F  0.00390631  0.52753748  0.29398103    -0.15700
F1128       F  0.07655950  0.98622481  0.31034833    -0.13300
C1129       C  0.97957837  0.86233882  0.35272246     0.24700
C1130       C  0.02679285  0.84663679  0.35504746    -0.23400
C1131       C  0.03816463  0.83033793  0.38247279     0.19600
C1132       C  0.00577271  0.83322412  0.40869614     0.24600
C1133       C  0.96223667  0.85265614  0.40743429    -0.23300
C1134       C  0.94806798  0.86571378  0.37870479     0.19600
F1135       F  0.90623151  0.88435206  0.37632972    -0.13300
F1136       F  0.96763606  0.87806802  0.32638894    -0.15700
F1137       F  0.02005511  0.81992824  0.43593240    -0.15700
F1138       F  0.08304469  0.81418700  0.38476037    -0.13300
C1139       C  0.20972509  0.71848480  0.02617008     0.24700
C1140       C  0.23167744  0.72984097  0.05386162    -0.23400
C1141       C  0.23448451  0.71018511  0.07997647     0.19600
C1142       C  0.22151898  0.67936523  0.07743517     0.24600
C1143       C  0.20386568  0.66747025  0.04913728    -0.23300
C1144       C  0.19537291  0.68752603  0.02394438     0.19600
F1145       F  0.17620241  0.67684102  0.99660902    -0.13300
F1146       F  0.20458337  0.73679725  0.00083383    -0.15700
F1147       F  0.22701662  0.66096521  0.10270394    -0.15700
F1148       F  0.25164371  0.72038568  0.10799331    -0.13300
C1149       C  0.30762393  0.93661649  0.01506639     0.24700
C1150       C  0.31124522  0.91809858  0.04177484    -0.23400
C1151       C  0.30679209  0.93132718  0.07117481     0.19600
C1152       C  0.29485068  0.96218370  0.07401481     0.24600
C1153       C  0.28530455  0.98022489  0.04740265    -0.23300
C1154       C  0.29430301  0.96761914  0.01783986     0.19600
F1155       F  0.28642730  0.98451386  0.99174435    -0.13300
F1156       F  0.31317121  0.92420421  0.98637378    -0.15700
F1157       F  0.28983780  0.47433405  0.10234868    -0.15700
F1158       F  0.31274657  0.91407069  0.09723500    -0.13300
C1159       C  0.46103588  0.71280304  0.03495120     0.24700
C1160       C  0.46163950  0.74284879  0.02284247    -0.23400
C1161       C  0.50103253  0.75044110  0.00118060     0.19600
C1162       C  0.53892524  0.72902217  0.99233476     0.24600
C1163       C  0.53892778  0.69908418  0.00475635    -0.23300
C1164       C  0.49900634  0.69130289  0.02607229     0.19600
F1165       F  0.49672485  0.66286620  0.53862608    -0.13300
F1166       F  0.42429555  0.70420095  0.05598594    -0.15700
F1167       F  0.57528444  0.73775521  0.97112028    -0.15700
F1168       F  0.50292787  0.77873079  0.98810851    -0.13300
C1169       C  0.26970489  0.86770518  0.18870007     0.24700
C1170       C  0.21645874  0.86490217  0.19644208    -0.23400
C1171       C  0.18198840  0.85233912  0.17437337     0.19600
C1172       C  0.20128043  0.84032661  0.14637682     0.24600
C1173       C  0.25542481  0.84061900  0.14005280    -0.23300
C1174       C  0.28885688  0.85581414  0.16091405     0.19600
F1175       F  0.34045365  0.85912535  0.15458590    -0.13300
F1176       F  0.30391973  0.88101148  0.20873047    -0.15700
F1177       F  0.16720399  0.82704605  0.12628150    -0.15700
F1178       F  0.13027847  0.84961601  0.18079571    -0.13300
C1179       C  0.33022608  0.85067943  0.42681360     0.24700
C1180       C  0.29995498  0.83158770  0.44610278    -0.23400
C1181       C  0.24938187  0.82331590  0.43631147     0.19600
C1182       C  0.22802153  0.83565151  0.40917670     0.24600
C1183       C  0.25679547  0.85627739  0.39080653    -0.23300
C1184       C  0.30891764  0.86280246  0.39928298     0.19600
F1185       F  0.33813872  0.88247771  0.38203866    -0.13300
F1186       F  0.37867276  0.85970787  0.43589003    -0.15700
F1187       F  0.17872872  0.82761379  0.40108147    -0.15700
F1188       F  0.21949169  0.80432303  0.45398048    -0.13300
C1189       C  0.79491445  0.67858150  0.20126984     0.24700
C1190       C  0.80735539  0.66641952  0.23052403    -0.23400
C1191       C  0.80717103  0.68556548  0.25671549     0.19600
C1192       C  0.79039256  0.71592057  0.25398592     0.24600
C1193       C  0.77398480  0.72737706  0.22497319    -0.23300
C1194       C  0.77868396  0.70876970  0.19845959     0.19600
F1195       F  0.76619734  0.71949630  0.16975032    -0.13300
F1196       F  0.79729485  0.66092149  0.17537808    -0.15700
F1197       F  0.78694090  0.73332824  0.27997200    -0.15700
F1198       F  0.81949933  0.67431465  0.28522709    -0.13300
C1199       C  0.73695354  0.92563498  0.19992137     0.24700
C1200       C  0.71219580  0.91535603  0.22711034    -0.23400
C1201       C  0.70066060  0.93653727  0.25070516     0.19600
C1202       C  0.71661595  0.96713436  0.24783750     0.24600
C1203       C  0.74415837  0.97695493  0.22126840    -0.23300
C1204       C  0.75269637  0.95591191  0.19700128     0.19600
F1205       F  0.77764977  0.96419542  0.17041953    -0.13300
F1206       F  0.74679991  0.90621021  0.17605462    -0.15700
F1207       F  0.70136971  0.48825548  0.26946258    -0.15700
F1208       F  0.67632671  0.92740354  0.27719035    -0.13300
C1209       C  0.45664504  0.73126163  0.27596996     0.24700
C1210       C  0.46688156  0.69961681  0.27320140    -0.23400
C1211       C  0.51638156  0.69092044  0.26190364     0.20400
C1212       C  0.55418210  0.71296790  0.25377486     0.24600
C1213       C  0.54397588  0.74458915  0.25659229    -0.23300
C1214       C  0.49450531  0.75331585  0.26784751     0.19600
F1215       F  0.48192851  0.78334249  0.27036792    -0.13300
F1216       F  0.40960682  0.74115072  0.28633644    -0.15700
F1217       F  0.60117549  0.70310335  0.24329826    -0.15700
F1218       F  0.52887821  0.66091999  0.25894141    -0.13300
C1219       C  0.76139169  0.86549112  0.32668055     0.24700
C1220       C  0.72298163  0.84215089  0.32574821    -0.23400
C1221       C  0.70048099  0.83228504  0.35384710     0.19600
C1222       C  0.71762492  0.84470115  0.38226108     0.24600
C1223       C  0.75718824  0.86731229  0.38289304    -0.23300
C1224       C  0.77787587  0.87791887  0.35475206     0.19600
F1225       F  0.81333897  0.90108174  0.35424058    -0.13300
F1226       F  0.78252109  0.87713700  0.30019851    -0.15700
F1227       F  0.69679691  0.83390339  0.40915235    -0.15700
F1228       F  0.66316762  0.81014613  0.35391753    -0.13300
C1229       C  0.80725207  0.83047467  0.12620860     0.24700
C1230       C  0.75338395  0.83266394  0.13293769    -0.23400
C1231       C  0.72131422  0.84908065  0.11234697     0.19600
C1232       C  0.74180508  0.86187425  0.08523125     0.24600
C1233       C  0.79488219  0.85815853  0.07748784    -0.23300
C1234       C  0.82773080  0.84297028  0.09863314     0.19600
F1235       F  0.87877638  0.83834926  0.09167013    -0.13300
F1236       F  0.83976880  0.81497233  0.14551917    -0.15700
F1237       F  0.70894730  0.87709519  0.06584213    -0.15700
F1238       F  0.66967612  0.85262934  0.11821130    -0.13300
C1239       C  0.44784412  0.82731706  0.14747707     0.24700
C1240       C  0.46143388  0.84200615  0.11935127    -0.23400
C1241       C  0.50549437  0.86130173  0.11881331     0.19600
C1242       C  0.53885604  0.86252428  0.14485499     0.24600
C1243       C  0.52787265  0.84465678  0.17135642    -0.23300
C1244       C  0.48039009  0.82899647  0.17323052     0.19600
F1245       F  0.46864326  0.81210539  0.19886547    -0.13300
F1246       F  0.40549753  0.80865036  0.14929200    -0.15700
F1247       F  0.58412475  0.87865056  0.14312029    -0.15700
F1248       F  0.51927780  0.87606945  0.09226499    -0.13300
O1249       O  0.75967418  0.81284838  0.68449915    -0.84200
O1250       O  0.73046604  0.86373102  0.71652218    -0.81300
C1251       C  0.70209811  0.88234849  0.73107230     0.99200
O1252       O  0.66669619  0.87298143  0.74939704    -0.81300
O1253       O  0.58959667  0.85016242  0.71252329    -0.84000
C1254       C  0.57004743  0.83375549  0.69159153     1.03800
O1255       O  0.58424395  0.80645088  0.68831104    -0.76700
O1256       O  0.68234973  0.81362811  0.66364608    -0.76900
C1257       C  0.73070301  0.81896916  0.66161468     1.03700
O1258       O  0.75552977  0.77832491  0.74153866    -0.84200
O1259       O  0.73941133  0.83268042  0.77315481    -0.81300
C1260       C  0.70690001  0.83002244  0.79490800     0.99200
O1261       O  0.66108499  0.82055773  0.78927741    -0.81300
O1262       O  0.57818202  0.79625805  0.75290869    -0.83900
C1263       C  0.58327760  0.76806428  0.74581697     1.03700
O1264       O  0.62015290  0.75977726  0.72824330    -0.76800
O1265       O  0.71658056  0.76135388  0.69964520    -0.76900
C1266       C  0.74751795  0.75718089  0.72220382     1.03700
Cr1267     Cr  0.74107928  0.82104460  0.72893468     1.93700
Cr1268     Cr  0.62724167  0.83306734  0.74925877     1.93200
Cr1269     Cr  0.65265346  0.78727718  0.69708771     1.39100
O1270       O  0.67335231  0.81348440  0.72574625    -1.22000
O1271       O  0.24873534  0.82051065  0.58856646    -0.84200
O1272       O  0.28360916  0.86786856  0.55292648    -0.81300
C1273       C  0.31669430  0.88481203  0.53953000     0.99200
O1274       O  0.35450908  0.87374131  0.52464573    -0.81300
O1275       O  0.42079755  0.84956429  0.56887825    -0.84000
C1276       C  0.43432074  0.83197421  0.59071625     1.03800
O1277       O  0.42337698  0.80416873  0.58869804    -0.76700
O1278       O  0.32464405  0.81717068  0.61150574    -0.76900
C1279       C  0.27739044  0.82546217  0.61199140     1.03700
O1280       O  0.25238091  0.78052741  0.53451115    -0.84200
O1281       O  0.27869169  0.83113235  0.49877029    -0.81300
C1282       C  0.31434773  0.82672861  0.97911648     0.99200
O1283       O  0.36067947  0.82068818  0.48759753    -0.81300
O1284       O  0.43385266  0.79491744  0.52863868    -0.83900
C1285       C  0.42383369  0.76673176  0.53380675     1.03700
O1286       O  0.38376428  0.75924270  0.54954961    -0.76800
O1287       O  0.28601847  0.76577796  0.57843686    -0.76900
C1288       C  0.25730927  0.76034755  0.55537794     1.03700
Cr1289     Cr  0.27091904  0.82411968  0.54393120     1.93700
Cr1290     Cr  0.38894525  0.83306359  0.52915343     1.93200
Cr1291     Cr  0.35292080  0.78851017  0.57984256     1.39100
O1292       O  0.33745349  0.81491088  0.55010219    -1.22000
O1293       O  0.26010515  0.87715312  0.83957509    -0.84200
O1294       O  0.22759073  0.82830581  0.80500034    -0.81300
C1295       C  0.19732715  0.81077878  0.79015435     0.99200
O1296       O  0.16169781  0.82133445  0.77278436    -0.81300
O1297       O  0.08719254  0.84212707  0.81302962    -0.84000
C1298       C  0.06920956  0.85771267  0.83504503     1.03800
O1299       O  0.08481094  0.88462196  0.83959965    -0.76700
O1300       O  0.18404019  0.87580039  0.86210538    -0.76900
C1301       C  0.23243573  0.87041311  0.86288657     1.03700
O1302       O  0.25265485  0.91513639  0.78466084    -0.84200
O1303       O  0.23387194  0.86313553  0.74990356    -0.81300
C1304       C  0.20052689  0.86930548  0.72927789     0.99200
O1305       O  0.15449343  0.87649556  0.73686820    -0.81300
O1306       O  0.07512281  0.89791454  0.77600124    -0.83900
C1307       C  0.08165730  0.92574677  0.78392539     1.03700
O1308       O  0.11927476  0.93312634  0.80153645    -0.76800
O1309       O  0.21726040  0.92978403  0.82831628    -0.76900
C1310       C  0.24538547  0.93552104  0.80488207     1.03700
Cr1311     Cr  0.23847362  0.87167249  0.79500968     1.93700
Cr1312     Cr  0.12322651  0.86112539  0.77652506     1.93200
Cr1313     Cr  0.15298351  0.90393497  0.83063064     1.39100
O1314       O  0.17122491  0.87915914  0.80020580    -1.22000
O1315       O  0.75067059  0.88118841  0.93621622    -0.84200
O1316       O  0.78304618  0.82994671  0.96632394    -0.81300
C1317       C  0.81261491  0.81126389  0.98002606     0.99200
O1318       O  0.84906844  0.82062445  0.99750652    -0.81300
O1319       O  0.92015133  0.84560197  0.95694161    -0.84000
C1320       C  0.93517414  0.86343013  0.93566254     1.03800
O1321       O  0.92600219  0.89155631  0.93781684    -0.76700
O1322       O  0.82693155  0.88580485  0.91412800    -0.76900
C1323       C  0.77925438  0.87867385  0.91251950     1.03700
O1324       O  0.75608347  0.91482945  0.99407248    -0.84200
O1325       O  0.77783392  0.86043756  0.52426874    -0.81300
C1326       C  0.81171133  0.86458602  0.54514571     0.99200
O1327       O  0.85829097  0.87175743  0.53808266    -0.81300
O1328       O  0.93777891  0.89707123  0.50006668    -0.83900
C1329       C  0.93067491  0.92574447  0.99631068     1.03700
O1330       O  0.89113983  0.93504163  0.98136116    -0.76800
O1331       O  0.79345853  0.93464519  0.95293837    -0.76900
C1332       C  0.76282435  0.93706220  0.97570899     1.03700
Cr1333     Cr  0.77213841  0.87245044  0.98009545     1.93700
Cr1334     Cr  0.88801919  0.86063273  0.99658054     1.93200
Cr1335     Cr  0.85778875  0.90969029  0.94865163     1.39100
O1336       O  0.83929923  0.88121578  0.97574578    -1.22000
O1337       O  0.19369003  0.56189015  0.61266076    -0.84200
O1338       O  0.09409411  0.55166728  0.59215361    -0.81300
C1339       C  0.08219526  0.57944506  0.59348875     0.99200
O1340       O  0.09446911  0.59702215  0.57139023    -0.81300
O1341       O  0.16080046  0.62348783  0.52930140    -0.84000
C1342       C  0.19743914  0.63407659  0.54584564     1.03800
O1343       O  0.22969742  0.61644987  0.55899722    -0.76700
O1344       O  0.26847947  0.56587384  0.58893816    -0.76900
C1345       C  0.24106676  0.56979831  0.61290859     1.03700
O1346       O  0.22886283  0.51250207  0.57425657    -0.84200
O1347       O  0.12889063  0.50796668  0.54904156    -0.81300
C1348       C  0.08832210  0.51614743  0.53433253     0.99200
O1349       O  0.07983972  0.54449486  0.52949661    -0.81300
O1350       O  0.15413005  0.57210969  0.48909145    -0.83900
C1351       C  0.19881702  0.58231310  0.98134445     1.03700
O1352       O  0.23404444  0.58586365  0.50151124    -0.76800
O1353       O  0.26176637  0.53182799  0.53157647    -0.76900
C1354       C  0.25769164  0.50990965  0.55064830     1.03700
Cr1355     Cr  0.16286124  0.53552200  0.57984093     1.93700
Cr1356     Cr  0.12580968  0.58241663  0.53133361     1.93200
Cr1357     Cr  0.24345574  0.57398625  0.54546480     1.39100
O1358       O  0.17727477  0.56354768  0.55138868    -1.22000
O1359       O  0.83430421  0.56790754  0.66333552    -0.84200
O1360       O  0.93157169  0.55827237  0.68892734    -0.81300
C1361       C  0.94709530  0.58513046  0.69365868     0.99200
O1362       O  0.92772247  0.60093964  0.71509667    -0.81300
O1363       O  0.84948480  0.62287656  0.75206018    -0.84000
C1364       C  0.81534315  0.63330635  0.73353074     1.03800
O1365       O  0.78630897  0.61569611  0.71796617    -0.76700
O1366       O  0.75654400  0.56651844  0.68344509    -0.76900
C1367       C  0.78607730  0.57353335  0.66109526     1.03700
O1368       O  0.79730254  0.51454838  0.69632309    -0.84200
O1369       O  0.89282233  0.51049297  0.72611800    -0.81300
C1370       C  0.92896932  0.51774500  0.74485966     0.99200
O1371       O  0.93473296  0.54552949  0.75322924    -0.81300
O1372       O  0.85184599  0.56829577  0.78924495    -0.83900
C1373       C  0.80539368  0.57617717  0.79509286     1.03700
O1374       O  0.77423162  0.58193355  0.77322829    -0.76800
O1375       O  0.75820018  0.52912038  0.73877368    -0.76900
C1376       C  0.76733117  0.50866172  0.71886488     1.03700
Cr1377     Cr  0.86217852  0.53971357  0.69586882     1.93700
Cr1378     Cr  0.88754687  0.58274431  0.75051560     1.93200
Cr1379     Cr  0.77396605  0.57252336  0.72834901     1.39100
O1380       O  0.84157678  0.56473076  0.72549363    -1.22000
O1381       O  0.32073512  0.63135861  0.86157000    -0.84200
O1382       O  0.42128446  0.63962281  0.84010723    -0.81300
C1383       C  0.43080384  0.61158392  0.84214746     0.99200
O1384       O  0.41672493  0.59408401  0.82046359    -0.81300
O1385       O  0.34927088  0.57022450  0.77693539    -0.84000
C1386       C  0.31055323  0.56046137  0.79229695     1.03800
O1387       O  0.27903983  0.57852929  0.80499410    -0.76700
O1388       O  0.24561365  0.62730002  0.83750016    -0.76900
C1389       C  0.27275570  0.62462242  0.86193237     1.03700
O1390       O  0.28839787  0.68125902  0.82481140    -0.84200
O1391       O  0.38687978  0.68429372  0.79781046    -0.81300
C1392       C  0.42750460  0.67595630  0.78343418     0.99200
O1393       O  0.43598087  0.64747668  0.77925219    -0.81300
O1394       O  0.36144504  0.62247624  0.73831863    -0.83900
C1395       C  0.31548476  0.61623119  0.72934867     1.03700
O1396       O  0.27884918  0.61253722  0.74864136    -0.76800
O1397       O  0.25437274  0.66487509  0.78153616    -0.76900
C1398       C  0.25985726  0.68575117  0.80147032     1.03700
Cr1399     Cr  0.35293522  0.65709939  0.82882811     1.93700
Cr1400     Cr  0.38737327  0.61031107  0.78030791     1.93200
Cr1401     Cr  0.26968644  0.62165424  0.79342044     1.39100
O1402       O  0.33658986  0.62989372  0.80017579    -1.22000
O1403       O  0.67607251  0.62848752  0.91317490    -0.84200
O1404       O  0.57903744  0.63615590  0.93879793    -0.81300
C1405       C  0.56515672  0.60881146  0.94283424     0.99200
O1406       O  0.58498652  0.59290434  0.96417976    -0.81300
O1407       O  0.66187914  0.57196209  0.00325812    -0.84000
C1408       C  0.69577225  0.56119692  0.98497220     1.03800
O1409       O  0.72365551  0.57859469  0.96836976    -0.76700
O1410       O  0.75371310  0.62822435  0.93364831    -0.76900
C1411       C  0.72404112  0.62226884  0.91105152     1.03700
O1412       O  0.71208557  0.68158514  0.94707070    -0.84200
O1413       O  0.61588579  0.68399102  0.97678250    -0.81300
C1414       C  0.57857485  0.67589630  0.99433486     0.99200
O1415       O  0.57343769  0.64790788  0.50190905    -0.81300
O1416       O  0.65698681  0.62681605  0.53895157    -0.83900
C1417       C  0.70352914  0.61920854  0.54515563     1.03700
O1418       O  0.73497934  0.61307420  0.52355877    -0.76800
O1419       O  0.75285616  0.66538961  0.98863959    -0.76900
C1420       C  0.74401609  0.68628743  0.96900378     1.03700
Cr1421     Cr  0.64769555  0.65566054  0.94616920     1.93700
Cr1422     Cr  0.62266160  0.61160338  0.00017356     1.93200
Cr1423     Cr  0.73612844  0.62207821  0.97849213     1.39100
O1424       O  0.66865924  0.63014804  0.97550001    -1.22000
C1425       C  0.44254698  0.61376141  0.89911302     0.24700
C1426       C  0.45754586  0.60083645  0.87054264    -0.23400
C1427       C  0.50272282  0.58273161  0.86940559     0.19600
C1428       C  0.53563051  0.58098612  0.89556253     0.24600
C1429       C  0.52334351  0.59732333  0.92270525    -0.23300
C1430       C  0.47510676  0.61197684  0.92488663     0.19600
F1431       F  0.46269233  0.62807574  0.95079622    -0.13300
F1432       F  0.39874277  0.63090939  0.90138515    -0.15700
F1433       F  0.58197233  0.56624248  0.89333327    -0.15700
F1434       F  0.51795267  0.56981761  0.84226105    -0.13300
C1435       C  0.73240375  0.58225889  0.83295741     0.24700
C1436       C  0.78660646  0.58214425  0.82714517    -0.23400
C1437       C  0.82047644  0.59334055  0.85022366     0.19600
C1438       C  0.80037343  0.60602965  0.87764321     0.24600
C1439       C  0.74584467  0.60801816  0.88244968    -0.23300
C1440       C  0.71233363  0.59532987  0.85996558     0.19600
F1441       F  0.65976494  0.59597495  0.86367974    -0.13300
F1442       F  0.69828631  0.57060554  0.81183415    -0.15700
F1443       F  0.83448550  0.61752381  0.89882289    -0.15700
F1444       F  0.87287417  0.59387052  0.84546738    -0.13300
C1445       C  0.77636262  0.61432240  0.58326539     0.24700
C1446       C  0.72219443  0.61385839  0.57737144    -0.23400
C1447       C  0.68862224  0.60242065  0.60049181     0.19600
C1448       C  0.70913620  0.58982932  0.62796044     0.24600
C1449       C  0.76376403  0.58813012  0.63269805    -0.23300
C1450       C  0.79684968  0.60126937  0.61025271     0.19600
F1451       F  0.84943306  0.60095184  0.61389668    -0.13300
F1452       F  0.81008549  0.62636476  0.56212606    -0.15700
F1453       F  0.67535853  0.57809929  0.64921506    -0.15700
F1454       F  0.63621851  0.60148706  0.59570642    -0.13300
C1455       C  0.33414882  0.59023379  0.67871702     0.24700
C1456       C  0.30301220  0.61014717  0.69636750    -0.23400
C1457       C  0.25364370  0.61855649  0.68485933     0.19600
C1458       C  0.23420152  0.60572119  0.65750040     0.24600
C1459       C  0.26382072  0.58435525  0.64083923    -0.23300
C1460       C  0.31477757  0.57755388  0.65100701     0.19600
F1461       F  0.34441476  0.55710843  0.63527548    -0.13300
F1462       F  0.38134763  0.58101966  0.68959136    -0.15700
F1463       F  0.18607094  0.61408047  0.64736131    -0.15700
F1464       F  0.22317279  0.63832910  0.70093371    -0.13300
C1465       C  0.19627728  0.57871881  0.92230704     0.24700
C1466       C  0.21107434  0.59392747  0.94970396    -0.23400
C1467       C  0.24237014  0.62051585  0.94733518     0.19600
C1468       C  0.26093457  0.63064938  0.91871708     0.24600
C1469       C  0.24829792  0.61486461  0.89148044    -0.23300
C1470       C  0.21469806  0.58921910  0.89327090     0.19600
F1471       F  0.20206451  0.57343723  0.86718514    -0.13300
F1472       F  0.16661862  0.55295645  0.92375894    -0.15700
F1473       F  0.29148340  0.65611165  0.91763750    -0.15700
F1474       F  0.25571928  0.63676268  0.97303041    -0.13300
C1475       C  0.06982256  0.57838113  0.65069749     0.24700
C1476       C  0.05459238  0.59016208  0.62154529    -0.23400
C1477       C  0.00963678  0.60838502  0.61966919     0.19600
C1478       C  0.97713029  0.61142016  0.64577168     0.24600
C1479       C  0.98946200  0.59628259  0.67370061    -0.23300
C1480       C  0.03769674  0.58163883  0.67654567     0.19600
F1481       F  0.05054631  0.56708837  0.70341351    -0.13300
F1482       F  0.11377189  0.56139386  0.65370416    -0.15700
F1483       F  0.93096260  0.62624750  0.64288841    -0.15700
F1484       F  0.99422123  0.62024455  0.59197670    -0.13300
C1485       C  0.73318065  0.98079201  0.00872480     0.24700
C1486       C  0.73547435  0.96637966  0.97961370    -0.23400
C1487       C  0.71870820  0.98235015  0.95297034     0.19600
C1488       C  0.70532257  0.51347093  0.95464592     0.24600
C1489       C  0.70426987  0.52802611  0.98358251    -0.23300
C1490       C  0.71747345  0.01141101  0.01078815     0.19600
F1491       F  0.71887697  0.02568097  0.03876700    -0.13300
F1492       F  0.75026757  0.96614749  0.03465170    -0.15700
F1493       F  0.69292833  0.52910604  0.92834057    -0.15700
F1494       F  0.71883743  0.96864403  0.92468084    -0.13300
C1495       C  0.78439363  0.76697310  0.94785113     0.24700
C1496       C  0.80279570  0.77818218  0.97636065    -0.23400
C1497       C  0.80837051  0.75787299  0.00157658     0.19600
C1498       C  0.79192487  0.72734204  0.99893320     0.24600
C1499       C  0.76994362  0.71666861  0.97093670    -0.23300
C1500       C  0.76861984  0.73655467  0.94505033     0.19600
F1501       F  0.75100026  0.72682424  0.91696705    -0.13300
F1502       F  0.78111519  0.78563209  0.92263171    -0.15700
F1503       F  0.79496164  0.70882231  0.02424125    -0.15700
F1504       F  0.82658971  0.76802054  0.02935954    -0.13300
C1505       C  0.02039529  0.93928692  0.51826760     0.24700
C1506       C  0.97059036  0.94856025  0.50771187    -0.23400
C1507       C  0.96036250  0.98026782  0.00645923     0.19600
C1508       C  0.99995938  0.50198988  0.01160366     0.24600
C1509       C  0.04877091  0.99269400  0.52477273    -0.23300
C1510       C  0.05878794  0.96096750  0.52666989     0.19600
F1511       F  0.10604247  0.95068773  0.53641229    -0.13300
F1512       F  0.03263275  0.90914270  0.52002513    -0.15700
F1513       F  0.98881357  0.53209270  0.00771407    -0.15700
F1514       F  0.91283510  0.99067968  0.99737169    -0.13300
C1515       C  0.28403095  0.97806927  0.77273204     0.24700
C1516       C  0.26915491  0.96627161  0.80193014    -0.23400
C1517       C  0.27289875  0.98524805  0.82829779     0.19600
C1518       C  0.28957175  0.51532316  0.82469722     0.24600
C1519       C  0.30097186  0.52752601  0.79534165    -0.23300
C1520       C  0.30032989  0.00857368  0.76988055     0.19600
F1521       F  0.31145025  0.02004695  0.74127674    -0.13300
F1522       F  0.27985483  0.96073815  0.74670943    -0.15700
F1523       F  0.29254632  0.53312811  0.85046665    -0.15700
F1524       F  0.26043829  0.97465299  0.85706321    -0.13300
C1525       C  0.20022257  0.75787719  0.76753448     0.24700
C1526       C  0.20476016  0.77762393  0.79318321    -0.23400
C1527       C  0.22002673  0.76582596  0.82204833     0.19600
C1528       C  0.23404726  0.73535937  0.82496228     0.24600
C1529       C  0.23428892  0.71592693  0.79879495    -0.23300
C1530       C  0.21525061  0.72714499  0.77026581     0.19600
F1531       F  0.21394992  0.70901523  0.74471934    -0.13300
F1532       F  0.18460223  0.76874902  0.73945383    -0.15700
F1533       F  0.24921384  0.72530555  0.85347450    -0.15700
F1534       F  0.22246548  0.78406395  0.84753744    -0.13300
C1535       C  0.00598850  0.94324800  0.75031873     0.24700
C1536       C  0.04333491  0.94965311  0.77355169    -0.23400
C1537       C  0.04228625  0.97886693  0.78752077     0.19600
C1538       C  0.00507217  0.00080901  0.77864546     0.24600
C1539       C  0.96759659  0.99434665  0.75548514    -0.23300
C1540       C  0.96882422  0.96515631  0.74145068     0.19600
F1541       F  0.93461677  0.95773330  0.71851776    -0.13300
F1542       F  0.00558924  0.91578515  0.73566046    -0.15700
F1543       F  0.00364138  0.52743856  0.79417397    -0.15700
F1544       F  0.07683591  0.98628112  0.81027001    -0.13300
C1545       C  0.97963542  0.86242806  0.85272937     0.24700
C1546       C  0.02682434  0.84669984  0.85504980    -0.23400
C1547       C  0.03815804  0.83036995  0.88246196     0.19600
C1548       C  0.00574933  0.83324453  0.90867984     0.24600
C1549       C  0.96224087  0.85269872  0.90742610    -0.23300
C1550       C  0.94811535  0.86579496  0.87870745     0.19600
F1551       F  0.90631817  0.88446496  0.87634418    -0.13300
F1552       F  0.96772928  0.87818513  0.82640713    -0.15700
F1553       F  0.01999176  0.81991401  0.93590606    -0.15700
F1554       F  0.08301684  0.81419744  0.88474486    -0.13300
C1555       C  0.20979335  0.71845228  0.52614831     0.24700
C1556       C  0.23167997  0.72982642  0.55385042    -0.23400
C1557       C  0.23439701  0.71019217  0.57998504     0.19600
C1558       C  0.22144175  0.67936810  0.57745340     0.24600
C1559       C  0.20386961  0.66745302  0.54914655    -0.23300
C1560       C  0.19543261  0.68749379  0.52393444     0.19600
F1561       F  0.17630595  0.67679414  0.49659450    -0.13300
F1562       F  0.20473102  0.73674514  0.50079174    -0.15700
F1563       F  0.22686101  0.66098475  0.60274041    -0.15700
F1564       F  0.25145350  0.72042097  0.60801312    -0.13300
C1565       C  0.30747159  0.93659652  0.51502446     0.24700
C1566       C  0.31117529  0.91809362  0.54173981    -0.23400
C1567       C  0.30678592  0.93133638  0.57113634     0.19600
C1568       C  0.29484600  0.96219387  0.57397069     0.24600
C1569       C  0.28523230  0.98022183  0.54735804    -0.23300
C1570       C  0.29414929  0.96759985  0.51779342     0.19600
F1571       F  0.28619726  0.98447978  0.49169621    -0.13300
F1572       F  0.31294575  0.92416893  0.48633357    -0.15700
F1573       F  0.29024544  0.47436593  0.60225686    -0.15700
F1574       F  0.31280668  0.91409329  0.59720006    -0.13300
C1575       C  0.46113514  0.71283491  0.53490522     0.24700
C1576       C  0.46175051  0.74288816  0.52281744    -0.23400
C1577       C  0.50117231  0.75049517  0.50117757     0.19600
C1578       C  0.53907194  0.72907900  0.49232842     0.24600
C1579       C  0.53905176  0.69913083  0.50472560    -0.23300
C1580       C  0.49911031  0.69133979  0.52602452     0.19600
F1581       F  0.49664077  0.66283704  0.03869347    -0.13300
F1582       F  0.42437369  0.70421816  0.55592054    -0.15700
F1583       F  0.57545967  0.73782438  0.47113625    -0.15700
F1584       F  0.50308860  0.77879555  0.48813032    -0.13300
C1585       C  0.26978986  0.86763985  0.68871601     0.24700
C1586       C  0.21654092  0.86486007  0.69645710    -0.23400
C1587       C  0.18204980  0.85233344  0.67437765     0.19600
C1588       C  0.20132254  0.84032683  0.64637271     0.24600
C1589       C  0.25546693  0.84059405  0.64004826    -0.23300
C1590       C  0.28891884  0.85576418  0.66091784     0.19600
F1591       F  0.34051226  0.85907287  0.65458291    -0.13300
F1592       F  0.30402774  0.88091474  0.70875407    -0.15700
F1593       F  0.16722400  0.82708271  0.62626604    -0.15700
F1594       F  0.13033273  0.84964493  0.68079356    -0.13300
C1595       C  0.33021646  0.85069612  0.92684630     0.24700
C1596       C  0.29994136  0.83159544  0.94612309    -0.23400
C1597       C  0.24936988  0.82332698  0.93632607     0.19600
C1598       C  0.22801998  0.83566786  0.90919120     0.24600
C1599       C  0.25680530  0.85629550  0.89082929    -0.23300
C1600       C  0.30891905  0.86282511  0.89931710     0.19600
F1601       F  0.33813957  0.88251219  0.88208633    -0.13300
F1602       F  0.37865336  0.85972961  0.93593605    -0.15700
F1603       F  0.17872762  0.82763451  0.90108804    -0.15700
F1604       F  0.21947191  0.80433363  0.95399001    -0.13300
C1605       C  0.79498653  0.67858282  0.70120870     0.24700
C1606       C  0.80738416  0.66641067  0.73046581    -0.23400
C1607       C  0.80714171  0.68554396  0.75666556     0.19600
C1608       C  0.79034895  0.71589478  0.75394077     0.24600
C1609       C  0.77398214  0.72736130  0.72492493    -0.23300
C1610       C  0.77873562  0.70876906  0.69840386     0.19600
F1611       F  0.76628688  0.71950921  0.66969382    -0.13300
F1612       F  0.79743002  0.66093528  0.67531027    -0.15700
F1613       F  0.78683797  0.73328757  0.77993404    -0.15700
F1614       F  0.81942296  0.67428275  0.78518004    -0.13300
C1615       C  0.73704321  0.92563737  0.69994913     0.24700
C1616       C  0.71230391  0.91534805  0.72714027    -0.23400
C1617       C  0.70081273  0.93651864  0.75075296     0.19600
C1618       C  0.71677263  0.96711675  0.74789347     0.24600
C1619       C  0.74427434  0.97695073  0.72131391    -0.23300
C1620       C  0.75278392  0.95591647  0.69703534     0.19600
F1621       F  0.77769753  0.96421303  0.67044464    -0.13300
F1622       F  0.74686466  0.90622156  0.67607127    -0.15700
F1623       F  0.70186201  0.48820140  0.76963040    -0.15700
F1624       F  0.67651691  0.92737254  0.77724623    -0.13300
C1625       C  0.45664442  0.73121569  0.77582640     0.24700
C1626       C  0.46701709  0.69957394  0.77320371    -0.23400
C1627       C  0.51662628  0.69089626  0.76206247     0.20400
C1628       C  0.55439603  0.71296198  0.75393286     0.24600
C1629       C  0.54404521  0.74457951  0.75659627    -0.23300
C1630       C  0.49447469  0.75328697  0.76770622     0.19600
F1631       F  0.48177088  0.78330757  0.77007307    -0.13300
F1632       F  0.40949496  0.74108294  0.78603538    -0.15700
F1633       F  0.60150689  0.70312332  0.74361774    -0.15700
F1634       F  0.52926201  0.66090000  0.75926797    -0.13300
C1635       C  0.76148038  0.86542984  0.82666489     0.24700
C1636       C  0.72300668  0.84212550  0.82573319    -0.23400
C1637       C  0.70042693  0.83231241  0.85382865     0.19600
C1638       C  0.71755859  0.84474049  0.88224000     0.24600
C1639       C  0.75718606  0.86731380  0.88287255    -0.23300
C1640       C  0.77794438  0.87787370  0.85473206     0.19600
F1641       F  0.81345252  0.90101192  0.85421364    -0.13300
F1642       F  0.78268950  0.87703077  0.80018514    -0.15700
F1643       F  0.69664478  0.83399449  0.90912880    -0.15700
F1644       F  0.66303786  0.81021721  0.85389936    -0.13300
C1645       C  0.80728830  0.83052156  0.62623554     0.24700
C1646       C  0.75340227  0.83266627  0.63293280    -0.23400
C1647       C  0.72132138  0.84904543  0.61231859     0.19600
C1648       C  0.74182313  0.86185028  0.58521413     0.24600
C1649       C  0.79491919  0.85817167  0.57749824    -0.23300
C1650       C  0.82777713  0.84302202  0.59866612     0.19600
F1651       F  0.87884567  0.83844320  0.59173258    -0.13300
F1652       F  0.83981747  0.81505835  0.64557141    -0.15700
F1653       F  0.70895563  0.87703886  0.56580440    -0.15700
F1654       F  0.66965982  0.85254087  0.61814405    -0.13300
C1655       C  0.44786026  0.82735887  0.64747349     0.24700
C1656       C  0.46146110  0.84202769  0.61933839    -0.23400
C1657       C  0.50554369  0.86130560  0.61878825     0.19600
C1658       C  0.53891129  0.86252874  0.64482755     0.24600
C1659       C  0.52790551  0.84468617  0.67134308    -0.23300
C1660       C  0.48039905  0.82905276  0.67323028     0.19600
F1661       F  0.46861981  0.81219804  0.69888437    -0.13300
F1662       F  0.40550975  0.80869652  0.64929693    -0.15700
F1663       F  0.58420351  0.87863073  0.64307891    -0.15700
F1664       F  0.51934361  0.87605036  0.59222993    -0.13300
loop_ 
_geom_bond_atom_site_label_1 
_geom_bond_atom_site_label_2 
_geom_bond_distance 
_geom_bond_site_symmetry_2 
_ccdc_geom_bond_type 
O1          Cr19   2.005       .  S
O1            C9   1.261       .  A
O2          Cr19   1.958       .  S
O2            C3   1.262       .  A
C3            O4   1.269       .  A
C3          C368   1.477       .  S
O4          Cr20   2.015       .  S
O5          Cr20   1.995       .  S
O5            C6   1.255       .  A
C6            O7   1.257       .  A
C6          C411   1.466       .  S
O7          Cr21   1.979       .  S
O8          Cr21   1.991       .  S
O8            C9   1.262       .  A
C9          C398   1.486       .  S
O10         Cr19   1.981       .  S
O10          C18   1.262       .  A
O11         Cr19   1.972       .  S
O11          C12   1.258       .  A
C12          O13   1.265       .  A
C12         C388   1.485       .  S
O13         Cr20   2.001       .  S
O14         Cr20   2.044       .  S
O14          C15   1.279       .  A
C15          O16   1.265       .  A
C15         C381   1.508       .  S
O16         Cr21   1.980       .  S
O17         Cr21   1.997       .  S
O17          C18   1.265       .  A
C18         C361   1.478       .  S
Cr19         O22   1.770       .  S
Cr20         O22   1.780       .  S
Cr21         O22   1.765       .  S
O23         Cr41   2.011       .  S
O23          C31   1.265       .  A
O24         Cr41   1.979       .  S
O24          C25   1.262       .  A
C25          O26   1.261       .  A
C25         C318   1.467       .  S
O26         Cr42   1.998       .  S
O27         Cr42   2.026       .  S
O27          C28   1.261       .  A
C28          O29   1.249       .  A
C28         C408   1.480       .  S
O29         Cr43   1.964       .  S
O30         Cr43   1.993       .  S
O30          C31   1.265       .  A
C31         C341   1.490       .  S
O32         Cr41   2.007       .  S
O32          C40   1.264       .  A
O33         Cr41   1.977   1_556  S
O33         C450   1.262       .  A
C34         O449   1.262       .  A
C34         O451   1.269       .  A
C34         C348   1.483       .  S
O35         Cr42   2.004   1_556  S
O35         C450   1.269       .  A
O36         Cr42   2.030       .  S
O36          C37   1.277       .  A
C37          O38   1.272       .  A
C37         C328   1.507       .  S
O38         Cr43   1.996       .  S
O39         Cr43   1.977       .  S
O39          C40   1.256       .  A
C40         C308   1.488       .  S
Cr41         O44   1.771       .  S
Cr42         O44   1.781       .  S
Cr43         O44   1.767       .  S
O45         Cr63   2.010       .  S
O45          C53   1.262       .  A
O46         Cr63   1.961       .  S
O46          C47   1.262       .  A
C47          O48   1.266       .  A
C47         C278   1.467       .  S
O48         Cr64   2.010       .  S
O49         Cr64   2.000       .  S
O49          C50   1.258       .  A
C50          O51   1.256       .  A
C50         C298   1.465       .  S
O51         Cr65   1.973       .  S
O52         Cr65   1.996       .  S
O52          C53   1.263       .  A
C53         C351   1.489       .  S
O54         Cr63   1.981       .  S
O54          C62   1.262       .  A
O55         Cr63   1.981       .  S
O55          C56   1.260       .  A
C56          O57   1.265       .  A
C56         C338   1.485       .  S
O57         Cr64   2.001       .  S
O58         Cr64   2.029       .  S
O58          C59   1.274       .  A
C59          O60   1.267       .  A
C59         C288   1.504       .  S
O60         Cr65   1.987       .  S
O61         Cr65   1.996       .  S
O61          C62   1.264       .  A
C62         C268   1.478       .  S
Cr63         O66   1.770       .  S
Cr64         O66   1.779       .  S
Cr65         O66   1.767       .  S
O67         Cr85   2.003       .  S
O67          C75   1.262       .  A
O68         Cr85   1.975       .  S
O68          C69   1.261       .  A
C69          O70   1.265       .  A
C69         C248   1.477       .  S
O70         Cr86   2.011       .  S
O71         Cr86   2.007       .  S
O71          C72   1.260       .  A
C72          O73   1.257       .  A
C72         C301   1.478       .  S
O73         Cr87   1.978       .  S
O74         Cr87   1.977       .  S
O74          C75   1.260       .  A
C75         C391   1.479       .  S
O76         Cr85   1.996       .  S
O76          C84   1.262       .  A
O77        Cr501   1.977   1_554  S
O77          C78   1.262       .  A
C78          O79   1.268       .  A
C78         C401   1.481       .  S
O79        Cr502   2.001   1_554  S
O80        Cr502   2.040       .  S
O80         C497   1.276       .  A
C81          O82   1.266       .  A
C81         O496   1.276       .  A
C81         C674   1.507       .  S
O82         Cr87   1.983       .  S
O83         Cr87   1.988       .  S
O83          C84   1.261       .  A
C84         C238   1.475       .  S
Cr85        O493   1.977       .  S
Cr85         O88   1.771       .  S
Cr86        O495   2.001       .  S
Cr86        O496   2.040       .  S
Cr86         O88   1.781       .  S
Cr87         O88   1.767       .  S
O89        Cr107   1.986       .  S
O89          C97   1.260       .  A
O90        Cr107   1.973       .  S
O90          C91   1.254       .  A
C91          O92   1.260       .  A
C91         C228   1.477       .  S
O92        Cr108   2.008       .  S
O93        Cr108   2.007       .  S
O93          C94   1.265       .  A
C94          O95   1.264       .  A
C94         C311   1.476       .  S
O95        Cr109   1.980       .  S
O96        Cr109   2.007       .  S
O96          C97   1.261       .  A
C97         C211   1.479       .  S
O98        Cr107   1.986       .  S
O98         C106   1.262       .  A
O99        Cr107   1.990       .  S
O99         C100   1.268       .  A
C100        O101   1.276       .  A
C100       C1093   1.508   1_545  S
O101       Cr108   2.035       .  S
O102       Cr108   2.012   1_556  S
O102        C519   1.270       .  A
C103        O518   1.269       .  A
C103        O520   1.260       .  A
C103        C218   1.488       .  S
O104       Cr109   1.973       .  S
O104        C519   1.260   1_554  A
O105       Cr109   1.996       .  S
O105        C106   1.264       .  A
C106       C1153   1.478   1_545  S
Cr107       O110   1.768       .  S
Cr108       O110   1.779       .  S
Cr109       O110   1.772       .  S
O111       Cr129   1.989       .  S
O111        C119   1.263       .  A
O112       Cr129   1.974       .  S
O112        C113   1.255       .  A
C113        O114   1.258       .  A
C113        C231   1.465       .  S
O114       Cr130   2.000       .  S
O115       Cr130   2.012       .  S
O115        C116   1.268       .  A
C116        O117   1.261       .  A
C116        C358   1.469       .  S
O117       Cr131   1.963       .  S
O118       Cr131   2.002       .  S
O118        C119   1.261       .  A
C119        C201   1.490       .  S
O120       Cr129   1.987       .  S
O120        C128   1.262       .  A
O121       Cr129   1.979       .  S
O121        C122   1.266       .  A
C122        O123   1.276       .  A
C122       C1123   1.504   1_545  S
O123       Cr130   2.037       .  S
O124       Cr130   2.000       .  S
O124        C125   1.266       .  A
C125        O126   1.259       .  A
C125        C188   1.485       .  S
O126       Cr131   1.977       .  S
O127       Cr131   1.987       .  S
O127        C128   1.263       .  A
C128       C1203   1.482   1_545  S
Cr129       O132   1.764       .  S
Cr130       O132   1.776       .  S
Cr131       O132   1.770       .  S
O133       Cr151   1.979       .  S
O133        C141   1.262       .  A
O134       Cr151   1.973       .  S
O134        C135   1.254       .  A
C135        O136   1.259       .  A
C135        C178   1.476       .  S
O136       Cr152   2.010       .  S
O137       Cr152   2.009       .  S
O137        C138   1.265       .  A
C138        O139   1.258       .  A
C138        C271   1.466       .  S
O139       Cr153   1.963       .  S
O140       Cr153   2.012       .  S
O140        C141   1.265       .  A
C141        C221   1.481       .  S
O142       Cr151   1.972       .  S
O142        C150   1.257       .  A
O143       Cr151   1.983       .  S
O143        C144   1.266       .  A
C144        O145   1.278       .  A
C144        C378   1.509       .  S
O145       Cr152   2.045       .  S
O146       Cr152   1.994       .  S
O146        C147   1.267       .  A
C147        O148   1.263       .  A
C147        C208   1.478       .  S
O148       Cr153   1.984       .  S
O149       Cr153   1.995       .  S
O149        C150   1.261       .  A
C150        C281   1.479       .  S
Cr151       O154   1.764       .  S
Cr152       O154   1.781       .  S
Cr153       O154   1.773       .  S
O155       Cr173   1.994       .  S
O155        C163   1.262       .  A
O156       Cr173   1.977       .  S
O156        C157   1.258       .  A
C157        O158   1.258       .  A
C157        C181   1.463       .  S
O158       Cr174   1.996       .  S
O159       Cr174   2.010       .  S
O159        C160   1.265       .  A
C160        O161   1.262       .  A
C160        C241   1.467       .  S
O161       Cr175   1.977       .  S
O162       Cr175   1.999       .  S
O162        C163   1.260       .  A
C163        C191   1.491       .  S
O164       Cr173   1.999       .  S
O164        C172   1.265       .  A
O165       Cr173   1.987       .  S
O165        C166   1.267       .  A
C166        O583   1.274       .  A
C166        C747   1.508       .  S
O167       Cr590   2.033       .  S
O167        C582   1.274   1_554  A
O168       Cr590   1.999       .  S
O168        C169   1.266       .  A
C169        O170   1.261       .  A
C169        C198   1.484       .  S
O170       Cr591   1.976   1_554  S
O171       Cr175   1.990       .  S
O171        C172   1.264       .  A
C172        C251   1.486       .  S
Cr173       O176   1.765       .  S
Cr174       O583   2.033       .  S
Cr174       O584   1.999       .  S
Cr174       O176   1.779       .  S
Cr175       O586   1.977       .  S
Cr175       O176   1.768       .  S
C177        C178   1.409       .  A
C177        C182   1.388       .  A
C177        F184   1.355       .  S
C178        C179   1.405       .  A
C179        C180   1.407       .  A
C179        F186   1.357       .  S
C180        C181   1.407       .  A
C180        F185   1.356       .  S
C181        C182   1.396       .  A
C182        F183   1.359       .  S
C187        C188   1.410       .  A
C187        C192   1.396       .  A
C187        F194   1.359       .  S
C188        C189   1.406       .  A
C189        C190   1.404       .  A
C189        F196   1.358       .  S
C190        C191   1.414       .  A
C190        F195   1.358       .  S
C191        C192   1.406       .  A
C192        F193   1.356       .  S
C197        C198   1.410       .  A
C197        C202   1.393       .  A
C197        F204   1.359       .  S
C198        C199   1.406       .  A
C199        C200   1.405       .  A
C199        F206   1.358       .  S
C200        C201   1.415       .  A
C200        F205   1.358       .  S
C201        C202   1.405       .  A
C202        F203   1.356       .  S
C207        C208   1.407       .  A
C207        C212   1.405       .  A
C207        F214   1.358       .  S
C208        C209   1.407       .  A
C209        C210   1.396       .  A
C209        F216   1.358       .  S
C210        C211   1.404       .  A
C210        F215   1.358       .  S
C211        C212   1.408       .  A
C212        F213   1.358       .  S
C217        C218   1.406       .  A
C217        C222   1.411       .  A
C217        F224   1.357       .  S
C218        C219   1.414       .  A
C219        C220   1.391       .  A
C219        F226   1.359       .  S
C220        C221   1.399       .  A
C220        F225   1.358       .  S
C221        C222   1.413       .  A
C222        F223   1.357       .  S
C227        C228   1.410       .  A
C227        C232   1.392       .  A
C227        F234   1.357       .  S
C228        C229   1.405       .  A
C229        C230   1.406   1_455  A
C229        F236   1.357   1_455  S
C230        C231   1.407       .  A
C230        F235   1.356       .  S
C231        C232   1.398   1_655  A
C232        F233   1.359       .  S
C237        C238   1.406       .  A
C237        C242   1.403       .  A
C237        F244   1.358       .  S
C238        C239   1.409       .  A
C239       C1072   1.394       .  A
C239        F246   1.358       .  S
C240        C241   1.400       .  A
C240       C1071   1.394   1_545  A
C240        F245   1.359       .  S
C241       C1074   1.406       .  A
C242       C1073   1.407       .  A
C242        F243   1.358       .  S
C247        C248   1.403       .  A
C247        C252   1.394       .  A
C247        F254   1.358       .  S
C248        C249   1.408       .  A
C249        C250   1.404       .  A
C249        F256   1.358       .  S
C250        C251   1.409       .  A
C250        F255   1.358       .  S
C251        C252   1.411       .  A
C252        F253   1.358       .  S
C257        C258   1.414   1_455  A
C257        C262   1.410       .  A
C257        F264   1.358       .  S
C258        C497   1.507   1_554  S
C258        C675   1.412       .  A
C259        C674   1.412       .  A
C259       C1092   1.404   1_655  A
C259        F266   1.358       .  S
C260       C1091   1.405   1_545  A
C260       C1509   1.412   1_645  A
C260        F265   1.357       .  S
C261        C932   1.507       .  S
C261        C262   1.414       .  A
C261       C1508   1.413   1_455  A
C262        F263   1.358       .  S
C267        C268   1.409       .  A
C267        C272   1.400       .  A
C267        F274   1.358       .  S
C268        C269   1.410       .  A
C269       C1102   1.392       .  A
C269        F276   1.358       .  S
C270        C271   1.401       .  A
C270       C1101   1.392   1_545  A
C270        F275   1.359       .  S
C271       C1104   1.404       .  A
C272       C1103   1.404       .  A
C272        F273   1.358       .  S
C277        C278   1.407       .  A
C277        C282   1.404       .  A
C277        F284   1.358       .  S
C278        C279   1.400       .  A
C279        C280   1.386       .  A
C279        F286   1.359       .  S
C280        C281   1.412       .  A
C280        F285   1.359       .  S
C281        C282   1.408       .  A
C282        F283   1.357       .  S
C287        C288   1.411       .  A
C287        C292   1.406   1_455  A
C287        F294   1.358       .  S
C288        C289   1.413       .  A
C289        C290   1.407       .  A
C289        F296   1.358       .  S
C290        C291   1.412   1_455  A
C290       F1127   1.358       .  S
C291        C954   1.505       .  S
C291        C292   1.414       .  A
C292        F293   1.358       .  S
F295       C1122   1.358       .  S
C297        C298   1.397   1_655  A
C297        C302   1.389       .  A
C297        F304   1.359       .  S
C298        C299   1.407       .  A
C299        C300   1.407       .  A
C299        F306   1.354       .  S
C300        C301   1.405   1_455  A
C300        F305   1.357       .  S
C301        C302   1.408       .  A
C302        F303   1.353       .  S
C307        C308   1.408       .  A
C307        C312   1.405       .  A
C307        F314   1.357       .  S
C308        C309   1.415       .  A
C309        C310   1.391       .  A
C309        F316   1.359       .  S
C310        C311   1.400       .  A
C310        F315   1.358       .  S
C311        C312   1.410       .  A
C312        F313   1.358   1_554  S
C317        C318   1.407       .  A
C317        C322   1.405       .  A
C317        F324   1.358   1_554  S
C318        C319   1.398       .  A
C319        C320   1.390       .  A
C319        F326   1.359       .  S
C320        C321   1.411       .  A
C320       F1157   1.358       .  S
C321        C938   1.479       .  S
C321        C322   1.408       .  A
C322        F323   1.358   1_554  S
F325       C1152   1.359       .  S
C327        C328   1.412       .  A
C327        C332   1.409       .  A
C327        F334   1.358       .  S
C328        C329   1.413       .  A
C329        C330   1.404   1_554  A
C329        F336   1.358   1_554  S
C330        C331   1.412   1_556  A
C330        F335   1.358       .  S
C331        C582   1.508   1_554  S
C331        C332   1.415       .  A
C332        F749   1.358       .  S
F333        C748   1.358       .  S
C337        C338   1.409       .  A
C337        C342   1.396       .  A
C337        F344   1.359       .  S
C338        C339   1.407       .  A
C339        C340   1.407       .  A
C339        F346   1.358       .  S
C340        C341   1.413       .  A
C340        F345   1.358       .  S
C341        C342   1.406       .  A
C342        F343   1.357       .  S
C347        C348   1.407       .  A
C347        C352   1.408       .  A
C347        F354   1.358       .  S
C348        C349   1.407       .  A
C349        C350   1.397       .  A
C349        F356   1.359       .  S
C350        C351   1.405       .  A
C350        F355   1.354       .  S
C351        C352   1.412       .  A
C352        F353   1.357       .  S
C357        C358   1.402       .  A
C357        C362   1.390       .  A
C357        F364   1.359       .  S
C358        C359   1.406       .  A
C359        C360   1.401       .  A
C359        F366   1.358       .  S
C360        C361   1.408       .  A
C360        F365   1.358       .  S
C361        C362   1.410       .  A
C362        F363   1.359       .  S
C367        C368   1.404       .  A
C367        C372   1.387       .  A
C367        F374   1.359       .  S
C368        C369   1.409       .  A
C369        C370   1.403       .  A
C369        F376   1.358       .  S
C370        C371   1.410       .  A
C370       F1207   1.358       .  S
C371        C960   1.483       .  S
C371        C372   1.411       .  A
C372        F373   1.359       .  S
F375       C1202   1.358       .  S
C377        C378   1.415       .  A
C377        C382   1.407       .  A
C377        F384   1.358       .  S
C378        C379   1.412       .  A
C379        C380   1.408       .  A
C379        F386   1.358       .  S
C380        C381   1.415       .  A
C380        F385   1.358       .  S
C381        C382   1.411       .  A
C382        F383   1.357       .  S
C387        C388   1.414       .  A
C387        C392   1.390       .  A
C387        F394   1.359       .  S
C388        C389   1.406       .  A
C389        C390   1.408       .  A
C389        F396   1.357       .  S
C390        C391   1.412       .  A
C390        F395   1.358       .  S
C391        C392   1.400       .  A
C392        F393   1.358       .  S
C397        C398   1.412       .  A
C397        C402   1.405       .  A
C397        F404   1.358       .  S
C398        C399   1.405       .  A
C399        C400   1.395       .  A
C399        F406   1.355       .  S
C400        C401   1.408       .  A
C400        F405   1.359       .  S
C401        C402   1.406       .  A
C402        F403   1.357       .  S
C407        C408   1.412       .  A
C407        C412   1.388       .  A
C407        F414   1.357       .  S
C408        C409   1.406       .  A
C409        C410   1.409       .  A
C409        F416   1.357       .  S
C410        C411   1.408       .  A
C410        F415   1.356       .  S
C411        C412   1.395       .  A
C412        F413   1.359       .  S
O417       Cr435   2.005       .  S
O417        C425   1.261       .  A
O418       Cr435   1.959       .  S
O418        C419   1.262       .  A
C419        O420   1.269       .  A
C419        C784   1.477       .  S
O420       Cr436   2.015       .  S
O421       Cr436   1.995       .  S
O421        C422   1.255       .  A
C422        O423   1.257       .  A
C422        C827   1.466       .  S
O423       Cr437   1.979       .  S
O424       Cr437   1.991       .  S
O424        C425   1.262       .  A
C425        C814   1.486       .  S
O426       Cr435   1.982       .  S
O426        C434   1.262       .  A
O427       Cr435   1.972       .  S
O427        C428   1.258       .  A
C428        O429   1.265       .  A
C428        C804   1.485       .  S
O429       Cr436   2.001       .  S
O430       Cr436   2.044       .  S
O430        C431   1.279       .  A
C431        O432   1.265       .  A
C431        C797   1.508       .  S
O432       Cr437   1.979       .  S
O433       Cr437   1.997       .  S
O433        C434   1.265       .  A
C434        C777   1.478       .  S
Cr435       O438   1.770       .  S
Cr436       O438   1.779       .  S
Cr437       O438   1.765       .  S
O439       Cr457   2.011       .  S
O439        C447   1.265       .  A
O440       Cr457   1.979       .  S
O440        C441   1.262       .  A
C441        O442   1.261       .  A
C441        C734   1.467       .  S
O442       Cr458   1.998       .  S
O443       Cr458   2.026       .  S
O443        C444   1.261       .  A
C444        O445   1.249       .  A
C444        C824   1.480       .  S
O445       Cr459   1.964       .  S
O446       Cr459   1.993       .  S
O446        C447   1.265       .  A
C447        C757   1.490       .  S
O448       Cr457   2.007       .  S
O448        C456   1.264       .  A
O449       Cr457   1.977       .  S
C450        C764   1.483       .  S
O451       Cr458   2.004       .  S
O452       Cr458   2.030       .  S
O452        C453   1.277       .  A
C453        O454   1.272       .  A
C453        C744   1.507       .  S
O454       Cr459   1.996       .  S
O455       Cr459   1.977       .  S
O455        C456   1.256       .  A
C456        C724   1.488       .  S
Cr457       O460   1.771       .  S
Cr458       O460   1.781       .  S
Cr459       O460   1.767       .  S
O461       Cr479   2.010       .  S
O461        C469   1.262       .  A
O462       Cr479   1.961       .  S
O462        C463   1.262       .  A
C463        O464   1.266       .  A
C463        C694   1.468       .  S
O464       Cr480   2.010       .  S
O465       Cr480   2.000       .  S
O465        C466   1.258       .  A
C466        O467   1.256       .  A
C466        C714   1.465       .  S
O467       Cr481   1.973       .  S
O468       Cr481   1.996       .  S
O468        C469   1.263       .  A
C469        C767   1.489       .  S
O470       Cr479   1.981       .  S
O470        C478   1.262       .  A
O471       Cr479   1.981       .  S
O471        C472   1.260       .  A
C472        O473   1.265       .  A
C472        C754   1.485       .  S
O473       Cr480   2.001       .  S
O474       Cr480   2.029       .  S
O474        C475   1.274       .  A
C475        O476   1.267       .  A
C475        C704   1.504       .  S
O476       Cr481   1.987       .  S
O477       Cr481   1.996       .  S
O477        C478   1.264       .  A
C478        C684   1.478       .  S
Cr479       O482   1.770       .  S
Cr480       O482   1.779       .  S
Cr481       O482   1.767       .  S
O483       Cr501   2.004       .  S
O483        C491   1.262       .  A
O484       Cr501   1.974       .  S
O484        C485   1.261       .  A
C485        O486   1.265       .  A
C485        C664   1.477       .  S
O486       Cr502   2.011       .  S
O487       Cr502   2.007       .  S
O487        C488   1.260       .  A
C488        O489   1.257       .  A
C488        C717   1.478       .  S
O489       Cr503   1.978       .  S
O490       Cr503   1.976       .  S
O490        C491   1.260       .  A
C491        C807   1.479       .  S
O492       Cr501   1.996       .  S
O492        C500   1.262       .  A
O493        C494   1.262       .  A
C494        O495   1.268       .  A
C494        C817   1.481       .  S
C497        O498   1.266       .  A
O498       Cr503   1.982       .  S
O499       Cr503   1.987       .  S
O499        C500   1.261       .  A
C500        C654   1.476       .  S
Cr501       O504   1.771       .  S
Cr502       O504   1.781       .  S
Cr503       O504   1.767       .  S
O505       Cr523   1.986       .  S
O505        C513   1.260       .  A
O506       Cr523   1.973       .  S
O506        C507   1.255       .  A
C507        O508   1.260       .  A
C507        C644   1.477       .  S
O508       Cr524   2.008       .  S
O509       Cr524   2.007       .  S
O509        C510   1.265       .  A
C510        O511   1.264       .  A
C510        C727   1.476       .  S
O511       Cr525   1.980       .  S
O512       Cr525   2.007       .  S
O512        C513   1.261       .  A
C513        C627   1.478       .  S
O514       Cr523   1.986       .  S
O514        C522   1.262       .  A
O515       Cr523   1.990       .  S
O515        C516   1.268       .  A
C516        O517   1.276       .  A
C516       C1509   1.508   1_545  S
O517       Cr524   2.034       .  S
O518       Cr524   2.012       .  S
C519        C634   1.488       .  S
O520       Cr525   1.973       .  S
O521       Cr525   1.996       .  S
O521        C522   1.264       .  A
C522       C1569   1.478   1_545  S
Cr523       O526   1.768       .  S
Cr524       O526   1.779       .  S
Cr525       O526   1.772       .  S
O527       Cr545   1.989       .  S
O527        C535   1.263       .  A
O528       Cr545   1.974       .  S
O528        C529   1.255       .  A
C529        O530   1.258       .  A
C529        C647   1.465       .  S
O530       Cr546   2.000       .  S
O531       Cr546   2.012       .  S
O531        C532   1.268       .  A
C532        O533   1.261       .  A
C532        C774   1.469       .  S
O533       Cr547   1.963       .  S
O534       Cr547   2.002       .  S
O534        C535   1.261       .  A
C535        C617   1.490       .  S
O536       Cr545   1.988       .  S
O536        C544   1.263       .  A
O537       Cr545   1.979       .  S
O537        C538   1.266       .  A
C538        O539   1.276       .  A
C538       C1539   1.504   1_545  S
O539       Cr546   2.037       .  S
O540       Cr546   2.000       .  S
O540        C541   1.266       .  A
C541        O542   1.259       .  A
C541        C604   1.485       .  S
O542       Cr547   1.977       .  S
O543       Cr547   1.988       .  S
O543        C544   1.263       .  A
C544       C1619   1.482   1_545  S
Cr545       O548   1.764       .  S
Cr546       O548   1.776       .  S
Cr547       O548   1.770       .  S
O549       Cr567   1.979       .  S
O549        C557   1.262       .  A
O550       Cr567   1.973       .  S
O550        C551   1.254       .  A
C551        O552   1.259       .  A
C551        C594   1.476       .  S
O552       Cr568   2.010       .  S
O553       Cr568   2.009       .  S
O553        C554   1.265       .  A
C554        O555   1.258       .  A
C554        C687   1.466       .  S
O555       Cr569   1.963       .  S
O556       Cr569   2.013       .  S
O556        C557   1.265       .  A
C557        C637   1.481       .  S
O558       Cr567   1.973       .  S
O558        C566   1.257       .  A
O559       Cr567   1.982       .  S
O559        C560   1.266       .  A
C560        O561   1.278       .  A
C560        C794   1.509       .  S
O561       Cr568   2.045       .  S
O562       Cr568   1.994       .  S
O562        C563   1.267       .  A
C563        O564   1.263       .  A
C563        C624   1.478       .  S
O564       Cr569   1.984       .  S
O565       Cr569   1.995       .  S
O565        C566   1.261       .  A
C566        C697   1.479       .  S
Cr567       O570   1.764       .  S
Cr568       O570   1.781       .  S
Cr569       O570   1.773       .  S
O571       Cr589   1.994       .  S
O571        C579   1.262       .  A
O572       Cr589   1.977       .  S
O572        C573   1.258       .  A
C573        O574   1.258       .  A
C573        C597   1.463       .  S
O574       Cr590   1.996   1_556  S
O575       Cr590   2.010       .  S
O575        C576   1.265   1_554  A
C576        O577   1.262       .  A
C576        C657   1.468       .  S
O577       Cr591   1.977       .  S
O578       Cr591   1.999       .  S
O578        C579   1.260       .  A
C579        C607   1.490       .  S
O580       Cr589   1.999       .  S
O580        C588   1.265       .  A
O581       Cr589   1.987       .  S
O581        C582   1.267       .  A
O584        C585   1.266       .  A
C585        O586   1.261       .  A
C585        C614   1.484       .  S
O587       Cr591   1.990       .  S
O587        C588   1.264       .  A
C588        C667   1.486       .  S
Cr589       O592   1.765       .  S
Cr590       O592   1.779   1_554  S
Cr591       O592   1.768       .  S
C593        C594   1.409       .  A
C593        C598   1.388       .  A
C593        F600   1.355       .  S
C594        C595   1.405       .  A
C595        C596   1.407       .  A
C595        F602   1.357       .  S
C596        C597   1.407       .  A
C596        F601   1.356       .  S
C597        C598   1.396       .  A
C598        F599   1.359       .  S
C603        C604   1.410       .  A
C603        C608   1.396       .  A
C603        F610   1.359       .  S
C604        C605   1.406       .  A
C605        C606   1.404       .  A
C605        F612   1.358       .  S
C606        C607   1.414       .  A
C606        F611   1.358       .  S
C607        C608   1.406       .  A
C608        F609   1.356       .  S
C613        C614   1.410       .  A
C613        C618   1.393       .  A
C613        F620   1.359       .  S
C614        C615   1.406       .  A
C615        C616   1.405       .  A
C615        F622   1.358       .  S
C616        C617   1.415       .  A
C616        F621   1.358       .  S
C617        C618   1.405       .  A
C618        F619   1.356       .  S
C623        C624   1.407       .  A
C623        C628   1.405       .  A
C623        F630   1.358       .  S
C624        C625   1.407       .  A
C625        C626   1.396       .  A
C625        F632   1.358       .  S
C626        C627   1.404       .  A
C626        F631   1.358       .  S
C627        C628   1.408       .  A
C628        F629   1.358       .  S
C633        C634   1.406       .  A
C633        C638   1.411       .  A
C633        F640   1.357       .  S
C634        C635   1.414       .  A
C635        C636   1.391       .  A
C635        F642   1.359       .  S
C636        C637   1.399       .  A
C636        F641   1.358       .  S
C637        C638   1.413       .  A
C638        F639   1.357       .  S
C643        C644   1.410       .  A
C643        C648   1.392       .  A
C643        F650   1.357       .  S
C644        C645   1.405       .  A
C645        C646   1.406   1_455  A
C645        F652   1.357   1_455  S
C646        C647   1.407       .  A
C646        F651   1.356       .  S
C647        C648   1.398   1_655  A
C648        F649   1.359       .  S
C653        C654   1.406   1_554  A
C653        C658   1.403       .  A
C653        F660   1.358       .  S
C654        C655   1.409       .  A
C655       C1488   1.394       .  A
C655        F662   1.358       .  S
C656       C1487   1.394   1_545  A
C656        C657   1.400       .  A
C656        F661   1.359       .  S
C657       C1490   1.406   1_556  A
C658       C1489   1.407   1_554  A
C658        F659   1.358       .  S
C663        C664   1.403       .  A
C663        C668   1.394       .  A
C663        F670   1.358       .  S
C664        C665   1.408   1_556  A
C665        C666   1.404   1_554  A
C665        F672   1.358       .  S
C666        C667   1.409       .  A
C666        F671   1.358   1_556  S
C667        C668   1.411       .  A
C668        F669   1.358       .  S
C673        C674   1.414   1_455  A
C673        C678   1.410       .  A
C673        F680   1.358       .  S
C675       C1508   1.404       .  A
C675        F682   1.358   1_554  S
C676       C1507   1.405   1_545  A
C676       C1093   1.412   1_645  A
C676        F681   1.357       .  S
C677       C1348   1.508       .  S
C677       C1092   1.413       .  A
C677        C678   1.414       .  A
C678        F679   1.358       .  S
C683        C684   1.409       .  A
C683        C688   1.401       .  A
C683        F690   1.358       .  S
C684        C685   1.410       .  A
C685       C1518   1.392       .  A
C685        F692   1.358       .  S
C686       C1517   1.392   1_545  A
C686        C687   1.401       .  A
C686        F691   1.359       .  S
C687       C1520   1.404       .  A
C688       C1519   1.404       .  A
C688        F689   1.358       .  S
C693        C694   1.407       .  A
C693        C698   1.404       .  A
C693        F700   1.358       .  S
C694        C695   1.400       .  A
C695        C696   1.386       .  A
C695        F702   1.359       .  S
C696        C697   1.412       .  A
C696        F701   1.359       .  S
C697        C698   1.408       .  A
C698        F699   1.357       .  S
C703        C704   1.411       .  A
C703        C708   1.406   1_455  A
C703        F710   1.358       .  S
C704        C705   1.413       .  A
C705        C706   1.407       .  A
C705        F712   1.358       .  S
C706        C707   1.412   1_455  A
C706       F1543   1.358       .  S
C707       C1370   1.505       .  S
C707        C708   1.414       .  A
C708        F709   1.358       .  S
F711       C1538   1.358       .  S
C713        C714   1.397   1_655  A
C713        C718   1.389       .  A
C713        F720   1.359       .  S
C714        C715   1.407       .  A
C715        C716   1.407       .  A
C715        F722   1.354       .  S
C716        C717   1.405   1_455  A
C716        F721   1.357       .  S
C717        C718   1.408       .  A
C718        F719   1.353       .  S
C723        C724   1.408       .  A
C723        C728   1.405       .  A
C723        F730   1.357       .  S
C724        C725   1.415       .  A
C725        C726   1.391       .  A
C725        F732   1.359       .  S
C726        C727   1.400       .  A
C726        F731   1.358       .  S
C727        C728   1.410       .  A
C728        F729   1.358       .  S
C733        C734   1.407       .  A
C733        C738   1.405       .  A
C733        F740   1.358       .  S
C734        C735   1.398       .  A
C735        C736   1.390       .  A
C735        F742   1.359       .  S
C736        C737   1.410       .  A
C736       F1573   1.358       .  S
C737       C1354   1.479       .  S
C737        C738   1.408       .  A
C738        F739   1.358       .  S
F741       C1568   1.359       .  S
C743        C744   1.412       .  A
C743        C748   1.409       .  A
C743        F750   1.358       .  S
C744        C745   1.413       .  A
C745        C746   1.404       .  A
C745        F752   1.358       .  S
C746        C747   1.412       .  A
C746        F751   1.358       .  S
C747        C748   1.415       .  A
C753        C754   1.409       .  A
C753        C758   1.396       .  A
C753        F760   1.359       .  S
C754        C755   1.407       .  A
C755        C756   1.407       .  A
C755        F762   1.358       .  S
C756        C757   1.413       .  A
C756        F761   1.358       .  S
C757        C758   1.406       .  A
C758        F759   1.357       .  S
C763        C764   1.407       .  A
C763        C768   1.408       .  A
C763        F770   1.358       .  S
C764        C765   1.407       .  A
C765        C766   1.397       .  A
C765        F772   1.359       .  S
C766        C767   1.405       .  A
C766        F771   1.354       .  S
C767        C768   1.412       .  A
C768        F769   1.357       .  S
C773        C774   1.402       .  A
C773        C778   1.391       .  A
C773        F780   1.359       .  S
C774        C775   1.406       .  A
C775        C776   1.401       .  A
C775        F782   1.358       .  S
C776        C777   1.408       .  A
C776        F781   1.358       .  S
C777        C778   1.410       .  A
C778        F779   1.359       .  S
C783        C784   1.404       .  A
C783        C788   1.387       .  A
C783        F790   1.359       .  S
C784        C785   1.409       .  A
C785        C786   1.403       .  A
C785        F792   1.358       .  S
C786        C787   1.410       .  A
C786       F1623   1.358       .  S
C787       C1376   1.483       .  S
C787        C788   1.411       .  A
C788        F789   1.359       .  S
F791       C1618   1.358       .  S
C793        C794   1.415       .  A
C793        C798   1.407       .  A
C793        F800   1.358       .  S
C794        C795   1.412       .  A
C795        C796   1.408       .  A
C795        F802   1.358       .  S
C796        C797   1.415       .  A
C796        F801   1.358       .  S
C797        C798   1.411       .  A
C798        F799   1.357       .  S
C803        C804   1.414       .  A
C803        C808   1.390       .  A
C803        F810   1.359       .  S
C804        C805   1.406       .  A
C805        C806   1.408       .  A
C805        F812   1.357       .  S
C806        C807   1.412       .  A
C806        F811   1.358       .  S
C807        C808   1.400       .  A
C808        F809   1.358       .  S
C813        C814   1.413       .  A
C813        C818   1.405       .  A
C813        F820   1.358       .  S
C814        C815   1.405       .  A
C815        C816   1.395       .  A
C815        F822   1.356       .  S
C816        C817   1.408       .  A
C816        F821   1.359       .  S
C817        C818   1.405       .  A
C818        F819   1.357       .  S
C823        C824   1.412       .  A
C823        C828   1.388       .  A
C823        F830   1.357       .  S
C824        C825   1.406       .  A
C825        C826   1.409       .  A
C825        F832   1.357       .  S
C826        C827   1.408       .  A
C826        F831   1.356       .  S
C827        C828   1.395       .  A
C828        F829   1.359       .  S
O833       Cr851   2.005       .  S
O833        C841   1.261       .  A
O834       Cr851   1.959       .  S
O834        C835   1.261       .  A
C835        O836   1.268       .  A
C835       C1200   1.474       .  S
O836       Cr852   2.013       .  S
O837       Cr852   1.996       .  S
O837        C838   1.255       .  A
C838        O839   1.258       .  A
C838       C1243   1.467       .  S
O839       Cr853   1.980       .  S
O840       Cr853   1.991       .  S
O840        C841   1.262       .  A
C841       C1230   1.488       .  S
O842       Cr851   1.980       .  S
O842        C850   1.261       .  A
O843       Cr851   1.972       .  S
O843        C844   1.258       .  A
C844        O845   1.266       .  A
C844       C1220   1.487       .  S
O845       Cr852   2.003       .  S
O846       Cr852   2.043       .  S
O846        C847   1.278       .  A
C847        O848   1.265       .  A
C847       C1213   1.506       .  S
O848       Cr853   1.980       .  S
O849       Cr853   1.997       .  S
O849        C850   1.266       .  A
C850       C1193   1.476       .  S
Cr851       O854   1.769       .  S
Cr852       O854   1.780       .  S
Cr853       O854   1.765       .  S
O855       Cr873   2.009       .  S
O855        C863   1.265       .  A
O856       Cr873   1.978       .  S
O856        C857   1.262       .  A
C857        O858   1.261       .  A
C857       C1150   1.466       .  S
O858       Cr874   1.997       .  S
O859       Cr874   2.026       .  S
O859        C860   1.262       .  A
C860        O861   1.250       .  A
C860       C1240   1.480       .  S
O861       Cr875   1.964       .  S
O862       Cr875   1.993       .  S
O862        C863   1.265       .  A
C863       C1173   1.490       .  S
O864       Cr873   2.004       .  S
O864        C872   1.264       .  A
O865       Cr873   1.977   1_556  S
O865       C1282   1.262       .  A
C866       O1281   1.262       .  A
C866       O1283   1.269       .  A
C866       C1180   1.482       .  S
O867       Cr874   2.003   1_556  S
O867       C1282   1.269       .  A
O868       Cr874   2.030       .  S
O868        C869   1.277       .  A
C869        O870   1.271       .  A
C869       C1160   1.505       .  S
O870       Cr875   1.995       .  S
O871       Cr875   1.978       .  S
O871        C872   1.257       .  A
C872       C1140   1.486       .  S
Cr873       O876   1.772       .  S
Cr874       O876   1.781       .  S
Cr875       O876   1.767       .  S
O877       Cr895   2.010       .  S
O877        C885   1.262       .  A
O878       Cr895   1.962       .  S
O878        C879   1.262       .  A
C879        O880   1.266       .  A
C879       C1110   1.468       .  S
O880       Cr896   2.009       .  S
O881       Cr896   2.000       .  S
O881        C882   1.258       .  A
C882        O883   1.257       .  A
C882       C1130   1.465       .  S
O883       Cr897   1.974       .  S
O884       Cr897   1.994       .  S
O884        C885   1.263       .  A
C885       C1183   1.488       .  S
O886       Cr895   1.982       .  S
O886        C894   1.262       .  A
O887       Cr895   1.981       .  S
O887        C888   1.260       .  A
C888        O889   1.265       .  A
C888       C1170   1.485       .  S
O889       Cr896   1.999       .  S
O890       Cr896   2.030       .  S
O890        C891   1.275       .  A
C891        O892   1.266       .  A
C891       C1120   1.503       .  S
O892       Cr897   1.985       .  S
O893       Cr897   1.995       .  S
O893        C894   1.264       .  A
C894       C1100   1.479       .  S
Cr895       O898   1.769       .  S
Cr896       O898   1.779       .  S
Cr897       O898   1.766       .  S
O899       Cr917   2.002       .  S
O899        C907   1.261       .  A
O900       Cr917   1.973       .  S
O900        C901   1.261       .  A
C901        O902   1.265       .  A
C901       C1080   1.476       .  S
O902       Cr918   2.010       .  S
O903       Cr918   2.008       .  S
O903        C904   1.260       .  A
C904        O905   1.257       .  A
C904       C1133   1.478       .  S
O905       Cr919   1.978       .  S
O906       Cr919   1.980       .  S
O906        C907   1.261       .  A
C907       C1223   1.481       .  S
O908       Cr917   1.994       .  S
O908        C916   1.262       .  A
O909      Cr1333   1.975   1_554  S
O909        C910   1.261       .  A
C910        O911   1.269       .  A
C910       C1233   1.483       .  S
O911      Cr1334   2.004   1_554  S
O912      Cr1334   2.041   1_554  S
O912       C1329   1.276   1_554  A
C913       O1328   1.276       .  A
C913        O914   1.267       .  A
C913       C1506   1.508       .  S
O914       Cr919   1.984       .  S
O915       Cr919   1.989       .  S
O915        C916   1.261       .  A
C916       C1070   1.473       .  S
Cr917      O1325   1.975       .  S
Cr917       O920   1.770       .  S
Cr918      O1327   2.004       .  S
Cr918      O1328   2.041       .  S
Cr918       O920   1.781       .  S
Cr919       O920   1.767       .  S
O921       Cr939   1.987       .  S
O921        C929   1.260       .  A
O922       Cr939   1.973       .  S
O922        C923   1.255       .  A
C923        O924   1.260       .  A
C923       C1060   1.478       .  S
O924       Cr940   2.010       .  S
O925       Cr940   2.005       .  S
O925        C926   1.264       .  A
C926        O927   1.264       .  A
C926       C1143   1.475       .  S
O927       Cr941   1.980       .  S
O928       Cr941   2.008       .  S
O928        C929   1.261       .  A
C929       C1043   1.479       .  S
O930       Cr939   1.986       .  S
O930        C938   1.262       .  A
O931       Cr939   1.990       .  S
O931        C932   1.268       .  A
C932        O933   1.276       .  A
O933       Cr940   2.031       .  S
O934       Cr940   2.011   1_556  S
O934       C1351   1.269       .  A
C935       O1350   1.269       .  A
C935       O1352   1.261       .  A
C935       C1050   1.485       .  S
O936       Cr941   1.975       .  S
O936       C1351   1.261   1_554  A
O937       Cr941   1.997       .  S
O937        C938   1.264       .  A
Cr939       O942   1.768       .  S
Cr940       O942   1.779       .  S
Cr941       O942   1.772       .  S
O943       Cr961   1.996       .  S
O943        C951   1.264       .  A
O944       Cr961   1.973       .  S
O944        C945   1.255       .  A
C945        O946   1.258       .  A
C945       C1063   1.466       .  S
O946       Cr962   2.001       .  S
O947       Cr962   2.012       .  S
O947        C948   1.268       .  A
C948        O949   1.261       .  A
C948       C1190   1.468       .  S
O949       Cr963   1.963       .  S
O950       Cr963   2.001       .  S
O950        C951   1.261       .  A
C951       C1033   1.491       .  S
O952       Cr961   1.988       .  S
O952        C960   1.263       .  A
O953       Cr961   1.985       .  S
O953        C954   1.267       .  A
C954        O955   1.276       .  A
O955       Cr962   2.033       .  S
O956       Cr962   2.001       .  S
O956        C957   1.265       .  A
C957        O958   1.258       .  A
C957       C1020   1.485       .  S
O958       Cr963   1.976       .  S
O959       Cr963   1.989       .  S
O959        C960   1.263       .  A
Cr961       O964   1.765       .  S
Cr962       O964   1.777       .  S
Cr963       O964   1.770       .  S
O965       Cr983   1.980       .  S
O965        C973   1.262       .  A
O966       Cr983   1.972       .  S
O966        C967   1.254       .  A
C967        O968   1.260       .  A
C967       C1010   1.477       .  S
O968       Cr984   2.012       .  S
O969       Cr984   2.008       .  S
O969        C970   1.264       .  A
C970        O971   1.258       .  A
C970       C1103   1.465       .  S
O971       Cr985   1.964       .  S
O972       Cr985   2.012       .  S
O972        C973   1.265       .  A
C973       C1053   1.479       .  S
O974       Cr983   1.972       .  S
O974        C982   1.257       .  A
O975       Cr983   1.984       .  S
O975        C976   1.266       .  A
C976        O977   1.278       .  A
C976       C1210   1.508       .  S
O977       Cr984   2.043       .  S
O978       Cr984   1.996       .  S
O978        C979   1.267       .  A
C979        O980   1.263       .  A
C979       C1040   1.479       .  S
O980       Cr985   1.983       .  S
O981       Cr985   1.996       .  S
O981        C982   1.262       .  A
C982       C1113   1.479       .  S
Cr983       O986   1.764       .  S
Cr984       O986   1.781       .  S
Cr985       O986   1.773       .  S
O987      Cr1005   1.994       .  S
O987        C995   1.263       .  A
O988      Cr1005   1.976       .  S
O988        C989   1.257       .  A
C989        O990   1.258       .  A
C989       C1013   1.464       .  S
O990      Cr1006   1.999       .  S
O991      Cr1006   2.010       .  S
O991        C992   1.265       .  A
C992        O993   1.262       .  A
C992       C1073   1.469       .  S
O993      Cr1007   1.976       .  S
O994      Cr1007   1.999       .  S
O994        C995   1.260       .  A
C995       C1023   1.491       .  S
O996      Cr1005   1.997       .  S
O996       C1004   1.265       .  A
O997      Cr1005   1.988       .  S
O997        C998   1.267       .  A
C998       O1415   1.274       .  A
C998       C1579   1.507       .  S
O999      Cr1422   2.033       .  S
O999       C1414   1.274   1_554  A
O1000     Cr1422   2.000       .  S
O1000      C1001   1.267       .  A
C1001      O1002   1.261       .  A
C1001      C1030   1.484       .  S
O1002     Cr1423   1.979   1_554  S
O1003     Cr1007   1.989       .  S
O1003      C1004   1.264       .  A
C1004      C1083   1.485       .  S
Cr1005     O1008   1.767       .  S
Cr1006     O1415   2.032       .  S
Cr1006     O1416   2.000       .  S
Cr1006     O1008   1.778       .  S
Cr1007     O1418   1.978       .  S
Cr1007     O1008   1.769       .  S
C1009      C1010   1.409       .  A
C1009      C1014   1.389       .  A
C1009      F1016   1.356       .  S
C1010      C1011   1.405       .  A
C1011      C1012   1.407       .  A
C1011      F1018   1.357       .  S
C1012      C1013   1.408       .  A
C1012      F1017   1.356       .  S
C1013      C1014   1.397       .  A
C1014      F1015   1.359       .  S
C1019      C1020   1.411       .  A
C1019      C1024   1.396       .  A
C1019      F1026   1.359       .  S
C1020      C1021   1.405       .  A
C1021      C1022   1.405       .  A
C1021      F1028   1.358       .  S
C1022      C1023   1.415       .  A
C1022      F1027   1.358       .  S
C1023      C1024   1.406       .  A
C1024      F1025   1.356       .  S
C1029      C1030   1.410       .  A
C1029      C1034   1.395       .  A
C1029      F1036   1.359       .  S
C1030      C1031   1.405       .  A
C1031      C1032   1.405       .  A
C1031      F1038   1.358       .  S
C1032      C1033   1.416       .  A
C1032      F1037   1.358       .  S
C1033      C1034   1.406       .  A
C1034      F1035   1.355       .  S
C1039      C1040   1.408       .  A
C1039      C1044   1.405       .  A
C1039      F1046   1.358       .  S
C1040      C1041   1.407       .  A
C1041      C1042   1.396       .  A
C1041      F1048   1.358       .  S
C1042      C1043   1.405       .  A
C1042      F1047   1.358       .  S
C1043      C1044   1.408       .  A
C1044      F1045   1.358       .  S
C1049      C1050   1.406       .  A
C1049      C1054   1.411       .  A
C1049      F1056   1.357       .  S
C1050      C1051   1.413       .  A
C1051      C1052   1.391       .  A
C1051      F1058   1.359       .  S
C1052      C1053   1.399       .  A
C1052      F1057   1.359       .  S
C1053      C1054   1.412       .  A
C1054      F1055   1.357       .  S
C1059      C1060   1.410       .  A
C1059      C1064   1.392       .  A
C1059      F1066   1.357       .  S
C1060      C1061   1.405       .  A
C1061      C1062   1.406   1_455  A
C1061      F1068   1.357   1_455  S
C1062      C1063   1.407       .  A
C1062      F1067   1.356       .  S
C1063      C1064   1.399   1_655  A
C1064      F1065   1.359       .  S
C1069      C1070   1.405       .  A
C1069      C1074   1.402   1_565  A
C1069      F1076   1.358       .  S
C1070      C1071   1.408       .  A
C1071      F1078   1.358       .  S
C1072      C1073   1.400       .  A
C1072      F1077   1.359       .  S
C1074      F1075   1.358       .  S
C1079      C1080   1.403       .  A
C1079      C1084   1.394       .  A
C1079      F1086   1.359       .  S
C1080      C1081   1.408       .  A
C1081      C1082   1.403       .  A
C1081      F1088   1.358       .  S
C1082      C1083   1.409       .  A
C1082      F1087   1.358       .  S
C1083      C1084   1.412       .  A
C1084      F1085   1.358       .  S
C1089      C1090   1.414   1_455  A
C1089      C1094   1.410       .  A
C1089      F1096   1.358       .  S
C1090      C1329   1.508   1_554  S
C1090      C1507   1.412       .  A
C1091      C1506   1.412       .  A
C1091      F1098   1.358       .  S
C1092      F1097   1.358   1_455  S
C1093      C1094   1.414       .  A
C1094      F1095   1.358       .  S
C1099      C1100   1.409       .  A
C1099      C1104   1.401   1_565  A
C1099      F1106   1.358       .  S
C1100      C1101   1.411       .  A
C1101      F1108   1.358       .  S
C1102      C1103   1.401       .  A
C1102      F1107   1.359       .  S
C1104      F1105   1.358       .  S
C1109      C1110   1.408       .  A
C1109      C1114   1.404       .  A
C1109      F1116   1.358       .  S
C1110      C1111   1.399       .  A
C1111      C1112   1.386       .  A
C1111      F1118   1.359       .  S
C1112      C1113   1.413       .  A
C1112      F1117   1.359       .  S
C1113      C1114   1.408       .  A
C1114      F1115   1.357       .  S
C1119      C1120   1.411       .  A
C1119      C1124   1.405   1_455  A
C1119      F1126   1.358       .  S
C1120      C1121   1.413       .  A
C1121      C1122   1.407   1_565  A
C1121      F1128   1.358       .  S
C1122      C1123   1.411   1_445  A
C1123      C1124   1.414       .  A
C1124      F1125   1.358       .  S
C1129      C1130   1.396   1_655  A
C1129      C1134   1.388       .  A
C1129      F1136   1.359       .  S
C1130      C1131   1.408       .  A
C1131      C1132   1.408       .  A
C1131      F1138   1.355       .  S
C1132      C1133   1.405   1_455  A
C1132      F1137   1.357       .  S
C1133      C1134   1.408       .  A
C1134      F1135   1.352       .  S
C1139      C1140   1.408       .  A
C1139      C1144   1.404       .  A
C1139      F1146   1.357       .  S
C1140      C1141   1.415       .  A
C1141      C1142   1.391       .  A
C1141      F1148   1.359       .  S
C1142      C1143   1.399       .  A
C1142      F1147   1.358       .  S
C1143      C1144   1.410       .  A
C1144      F1145   1.357   1_554  S
C1149      C1150   1.407       .  A
C1149      C1154   1.404       .  A
C1149      F1156   1.358   1_554  S
C1150      C1151   1.398       .  A
C1151      C1152   1.390       .  A
C1151      F1158   1.359       .  S
C1152      C1153   1.410       .  A
C1153      C1154   1.408       .  A
C1154      F1155   1.358   1_554  S
C1159      C1160   1.412       .  A
C1159      C1164   1.409       .  A
C1159      F1166   1.358       .  S
C1160      C1161   1.412       .  A
C1161      C1162   1.405   1_554  A
C1161      F1168   1.358   1_554  S
C1162      C1163   1.412   1_556  A
C1162      F1167   1.358       .  S
C1163      C1414   1.507   1_554  S
C1163      C1164   1.414       .  A
C1164      F1581   1.358       .  S
F1165      C1580   1.358       .  S
C1169      C1170   1.409       .  A
C1169      C1174   1.396       .  A
C1169      F1176   1.359       .  S
C1170      C1171   1.407       .  A
C1171      C1172   1.407       .  A
C1171      F1178   1.358       .  S
C1172      C1173   1.413       .  A
C1172      F1177   1.358       .  S
C1173      C1174   1.406       .  A
C1174      F1175   1.356       .  S
C1179      C1180   1.407       .  A
C1179      C1184   1.407       .  A
C1179      F1186   1.357       .  S
C1180      C1181   1.407       .  A
C1181      C1182   1.397       .  A
C1181      F1188   1.359       .  S
C1182      C1183   1.405       .  A
C1182      F1187   1.354       .  S
C1183      C1184   1.411       .  A
C1184      F1185   1.358       .  S
C1189      C1190   1.402       .  A
C1189      C1194   1.390       .  A
C1189      F1196   1.359       .  S
C1190      C1191   1.406       .  A
C1191      C1192   1.401       .  A
C1191      F1198   1.358       .  S
C1192      C1193   1.408       .  A
C1192      F1197   1.358       .  S
C1193      C1194   1.409       .  A
C1194      F1195   1.359       .  S
C1199      C1200   1.403       .  A
C1199      C1204   1.387       .  A
C1199      F1206   1.359       .  S
C1200      C1201   1.409       .  A
C1201      C1202   1.402       .  A
C1201      F1208   1.358       .  S
C1202      C1203   1.409       .  A
C1203      C1204   1.412       .  A
C1204      F1205   1.359       .  S
C1209      C1210   1.414       .  A
C1209      C1214   1.408       .  A
C1209      F1216   1.358       .  S
C1210      C1211   1.412       .  A
C1211      C1212   1.407       .  A
C1211      F1218   1.358       .  S
C1212      C1213   1.413       .  A
C1212      F1217   1.358       .  S
C1213      C1214   1.411       .  A
C1214      F1215   1.358       .  S
C1219      C1220   1.415       .  A
C1219      C1224   1.390       .  A
C1219      F1226   1.359       .  S
C1220      C1221   1.406       .  A
C1221      C1222   1.408       .  A
C1221      F1228   1.357       .  S
C1222      C1223   1.413       .  A
C1222      F1227   1.358       .  S
C1223      C1224   1.400       .  A
C1224      F1225   1.357       .  S
C1229      C1230   1.413       .  A
C1229      C1234   1.406       .  A
C1229      F1236   1.358       .  S
C1230      C1231   1.405       .  A
C1231      C1232   1.395       .  A
C1231      F1238   1.356       .  S
C1232      C1233   1.410       .  A
C1232      F1237   1.359       .  S
C1233      C1234   1.406       .  A
C1234      F1235   1.357       .  S
C1239      C1240   1.412       .  A
C1239      C1244   1.388       .  A
C1239      F1246   1.357       .  S
C1240      C1241   1.406       .  A
C1241      C1242   1.409       .  A
C1241      F1248   1.357       .  S
C1242      C1243   1.409       .  A
C1242      F1247   1.356       .  S
C1243      C1244   1.395       .  A
C1244      F1245   1.359       .  S
O1249     Cr1267   2.005       .  S
O1249      C1257   1.261       .  A
O1250     Cr1267   1.960       .  S
O1250      C1251   1.261       .  A
C1251      O1252   1.268       .  A
C1251      C1616   1.474       .  S
O1252     Cr1268   2.013       .  S
O1253     Cr1268   1.996       .  S
O1253      C1254   1.255       .  A
C1254      O1255   1.258       .  A
C1254      C1659   1.467       .  S
O1255     Cr1269   1.980       .  S
O1256     Cr1269   1.991       .  S
O1256      C1257   1.262       .  A
C1257      C1646   1.488       .  S
O1258     Cr1267   1.979       .  S
O1258      C1266   1.261       .  A
O1259     Cr1267   1.972       .  S
O1259      C1260   1.258       .  A
C1260      O1261   1.266       .  A
C1260      C1636   1.487       .  S
O1261     Cr1268   2.003       .  S
O1262     Cr1268   2.043       .  S
O1262      C1263   1.278       .  A
C1263      O1264   1.265       .  A
C1263      C1629   1.506       .  S
O1264     Cr1269   1.980       .  S
O1265     Cr1269   1.998       .  S
O1265      C1266   1.266       .  A
C1266      C1609   1.476       .  S
Cr1267     O1270   1.769       .  S
Cr1268     O1270   1.780       .  S
Cr1269     O1270   1.765       .  S
O1271     Cr1289   2.009       .  S
O1271      C1279   1.265       .  A
O1272     Cr1289   1.978       .  S
O1272      C1273   1.262       .  A
C1273      O1274   1.261       .  A
C1273      C1566   1.466       .  S
O1274     Cr1290   1.997       .  S
O1275     Cr1290   2.027       .  S
O1275      C1276   1.262       .  A
C1276      O1277   1.250       .  A
C1276      C1656   1.480       .  S
O1277     Cr1291   1.964       .  S
O1278     Cr1291   1.993       .  S
O1278      C1279   1.265       .  A
C1279      C1589   1.490       .  S
O1280     Cr1289   2.004       .  S
O1280      C1288   1.264       .  A
O1281     Cr1289   1.977       .  S
C1282      C1596   1.482       .  S
O1283     Cr1290   2.003       .  S
O1284     Cr1290   2.030       .  S
O1284      C1285   1.277       .  A
C1285      O1286   1.271       .  A
C1285      C1576   1.505       .  S
O1286     Cr1291   1.995       .  S
O1287     Cr1291   1.978       .  S
O1287      C1288   1.257       .  A
C1288      C1556   1.486       .  S
Cr1289     O1292   1.772       .  S
Cr1290     O1292   1.781       .  S
Cr1291     O1292   1.767       .  S
O1293     Cr1311   2.010       .  S
O1293      C1301   1.262       .  A
O1294     Cr1311   1.962       .  S
O1294      C1295   1.262       .  A
C1295      O1296   1.266       .  A
C1295      C1526   1.468       .  S
O1296     Cr1312   2.010       .  S
O1297     Cr1312   2.000       .  S
O1297      C1298   1.258       .  A
C1298      O1299   1.257       .  A
C1298      C1546   1.465       .  S
O1299     Cr1313   1.974       .  S
O1300     Cr1313   1.994       .  S
O1300      C1301   1.263       .  A
C1301      C1599   1.488       .  S
O1302     Cr1311   1.983       .  S
O1302      C1310   1.262       .  A
O1303     Cr1311   1.981       .  S
O1303      C1304   1.260       .  A
C1304      O1305   1.265       .  A
C1304      C1586   1.485       .  S
O1305     Cr1312   1.999       .  S
O1306     Cr1312   2.030       .  S
O1306      C1307   1.275       .  A
C1307      O1308   1.266       .  A
C1307      C1536   1.503       .  S
O1308     Cr1313   1.985       .  S
O1309     Cr1313   1.995       .  S
O1309      C1310   1.264       .  A
C1310      C1516   1.479       .  S
Cr1311     O1314   1.769       .  S
Cr1312     O1314   1.779       .  S
Cr1313     O1314   1.766       .  S
O1315     Cr1333   2.002       .  S
O1315      C1323   1.261       .  A
O1316     Cr1333   1.973       .  S
O1316      C1317   1.261       .  A
C1317      O1318   1.265       .  A
C1317      C1496   1.476       .  S
O1318     Cr1334   2.010       .  S
O1319     Cr1334   2.008       .  S
O1319      C1320   1.260       .  A
C1320      O1321   1.256       .  A
C1320      C1549   1.478       .  S
O1321     Cr1335   1.978       .  S
O1322     Cr1335   1.980       .  S
O1322      C1323   1.261       .  A
C1323      C1639   1.481       .  S
O1324     Cr1333   1.994       .  S
O1324      C1332   1.262       .  A
O1325      C1326   1.261       .  A
C1326      O1327   1.269       .  A
C1326      C1649   1.483       .  S
C1329      O1330   1.267       .  A
O1330     Cr1335   1.984       .  S
O1331     Cr1335   1.989       .  S
O1331      C1332   1.261       .  A
C1332      C1486   1.473       .  S
Cr1333     O1336   1.770       .  S
Cr1334     O1336   1.781       .  S
Cr1335     O1336   1.767       .  S
O1337     Cr1355   1.986       .  S
O1337      C1345   1.260       .  A
O1338     Cr1355   1.973       .  S
O1338      C1339   1.255       .  A
C1339      O1340   1.260       .  A
C1339      C1476   1.478       .  S
O1340     Cr1356   2.009       .  S
O1341     Cr1356   2.005       .  S
O1341      C1342   1.264       .  A
C1342      O1343   1.264       .  A
C1342      C1559   1.475       .  S
O1343     Cr1357   1.980       .  S
O1344     Cr1357   2.008       .  S
O1344      C1345   1.261       .  A
C1345      C1459   1.479       .  S
O1346     Cr1355   1.986       .  S
O1346      C1354   1.262       .  A
O1347     Cr1355   1.990       .  S
O1347      C1348   1.268       .  A
C1348      O1349   1.275       .  A
O1349     Cr1356   2.031       .  S
O1350     Cr1356   2.011       .  S
C1351      C1466   1.485       .  S
O1352     Cr1357   1.975       .  S
O1353     Cr1357   1.997       .  S
O1353      C1354   1.264       .  A
Cr1355     O1358   1.768       .  S
Cr1356     O1358   1.779       .  S
Cr1357     O1358   1.772       .  S
O1359     Cr1377   1.996       .  S
O1359      C1367   1.264       .  A
O1360     Cr1377   1.973       .  S
O1360      C1361   1.255       .  A
C1361      O1362   1.258       .  A
C1361      C1479   1.466       .  S
O1362     Cr1378   2.001       .  S
O1363     Cr1378   2.012       .  S
O1363      C1364   1.268       .  A
C1364      O1365   1.261       .  A
C1364      C1606   1.468       .  S
O1365     Cr1379   1.963       .  S
O1366     Cr1379   2.001       .  S
O1366      C1367   1.261       .  A
C1367      C1449   1.491       .  S
O1368     Cr1377   1.989       .  S
O1368      C1376   1.263       .  A
O1369     Cr1377   1.985       .  S
O1369      C1370   1.267       .  A
C1370      O1371   1.276       .  A
O1371     Cr1378   2.033       .  S
O1372     Cr1378   2.001       .  S
O1372      C1373   1.265       .  A
C1373      O1374   1.258       .  A
C1373      C1436   1.486       .  S
O1374     Cr1379   1.976       .  S
O1375     Cr1379   1.988       .  S
O1375      C1376   1.263       .  A
Cr1377     O1380   1.765       .  S
Cr1378     O1380   1.777       .  S
Cr1379     O1380   1.770       .  S
O1381     Cr1399   1.979       .  S
O1381      C1389   1.262       .  A
O1382     Cr1399   1.972       .  S
O1382      C1383   1.254       .  A
C1383      O1384   1.260       .  A
C1383      C1426   1.477       .  S
O1384     Cr1400   2.012       .  S
O1385     Cr1400   2.008       .  S
O1385      C1386   1.264       .  A
C1386      O1387   1.258       .  A
C1386      C1519   1.465       .  S
O1387     Cr1401   1.964       .  S
O1388     Cr1401   2.012       .  S
O1388      C1389   1.265       .  A
C1389      C1469   1.479       .  S
O1390     Cr1399   1.972       .  S
O1390      C1398   1.257       .  A
O1391     Cr1399   1.984       .  S
O1391      C1392   1.266       .  A
C1392      O1393   1.278       .  A
C1392      C1626   1.508       .  S
O1393     Cr1400   2.043       .  S
O1394     Cr1400   1.996       .  S
O1394      C1395   1.267       .  A
C1395      O1396   1.263       .  A
C1395      C1456   1.479       .  S
O1396     Cr1401   1.983       .  S
O1397     Cr1401   1.996       .  S
O1397      C1398   1.262       .  A
C1398      C1529   1.479       .  S
Cr1399     O1402   1.764       .  S
Cr1400     O1402   1.781       .  S
Cr1401     O1402   1.773       .  S
O1403     Cr1421   1.994       .  S
O1403      C1411   1.263       .  A
O1404     Cr1421   1.976       .  S
O1404      C1405   1.257       .  A
C1405      O1406   1.258       .  A
C1405      C1429   1.464       .  S
O1406     Cr1422   1.999   1_556  S
O1407     Cr1422   2.010       .  S
O1407      C1408   1.265   1_554  A
C1408      O1409   1.262       .  A
C1408      C1489   1.469       .  S
O1409     Cr1423   1.976       .  S
O1410     Cr1423   1.999       .  S
O1410      C1411   1.260       .  A
C1411      C1439   1.491       .  S
O1412     Cr1421   1.997       .  S
O1412      C1420   1.265       .  A
O1413     Cr1421   1.988       .  S
O1413      C1414   1.267       .  A
O1416      C1417   1.267       .  A
C1417      O1418   1.261       .  A
C1417      C1446   1.484       .  S
O1419     Cr1423   1.989       .  S
O1419      C1420   1.264       .  A
C1420      C1499   1.485       .  S
Cr1421     O1424   1.767       .  S
Cr1422     O1424   1.778   1_554  S
Cr1423     O1424   1.769       .  S
C1425      C1426   1.409       .  A
C1425      C1430   1.389       .  A
C1425      F1432   1.355       .  S
C1426      C1427   1.405       .  A
C1427      C1428   1.407       .  A
C1427      F1434   1.357       .  S
C1428      C1429   1.408       .  A
C1428      F1433   1.356       .  S
C1429      C1430   1.397       .  A
C1430      F1431   1.359       .  S
C1435      C1436   1.411       .  A
C1435      C1440   1.396       .  A
C1435      F1442   1.359       .  S
C1436      C1437   1.405       .  A
C1437      C1438   1.405       .  A
C1437      F1444   1.358       .  S
C1438      C1439   1.415       .  A
C1438      F1443   1.358       .  S
C1439      C1440   1.406       .  A
C1440      F1441   1.356       .  S
C1445      C1446   1.410       .  A
C1445      C1450   1.395       .  A
C1445      F1452   1.359       .  S
C1446      C1447   1.405       .  A
C1447      C1448   1.405       .  A
C1447      F1454   1.358       .  S
C1448      C1449   1.416       .  A
C1448      F1453   1.358       .  S
C1449      C1450   1.406       .  A
C1450      F1451   1.355       .  S
C1455      C1456   1.408       .  A
C1455      C1460   1.405       .  A
C1455      F1462   1.358       .  S
C1456      C1457   1.407       .  A
C1457      C1458   1.396       .  A
C1457      F1464   1.358       .  S
C1458      C1459   1.405       .  A
C1458      F1463   1.358       .  S
C1459      C1460   1.408       .  A
C1460      F1461   1.358       .  S
C1465      C1466   1.406       .  A
C1465      C1470   1.411       .  A
C1465      F1472   1.357       .  S
C1466      C1467   1.413       .  A
C1467      C1468   1.391       .  A
C1467      F1474   1.359       .  S
C1468      C1469   1.399       .  A
C1468      F1473   1.359       .  S
C1469      C1470   1.412       .  A
C1470      F1471   1.357       .  S
C1475      C1476   1.410       .  A
C1475      C1480   1.392       .  A
C1475      F1482   1.357       .  S
C1476      C1477   1.405       .  A
C1477      C1478   1.406   1_455  A
C1477      F1484   1.357   1_455  S
C1478      C1479   1.407       .  A
C1478      F1483   1.356       .  S
C1479      C1480   1.399   1_655  A
C1480      F1481   1.359       .  S
C1485      C1486   1.405   1_554  A
C1485      C1490   1.402   1_565  A
C1485      F1492   1.358       .  S
C1486      C1487   1.408       .  A
C1487      F1494   1.358       .  S
C1488      C1489   1.400       .  A
C1488      F1493   1.359       .  S
C1490      F1491   1.358       .  S
C1495      C1496   1.403       .  A
C1495      C1500   1.394       .  A
C1495      F1502   1.359       .  S
C1496      C1497   1.408   1_556  A
C1497      C1498   1.403   1_554  A
C1497      F1504   1.358       .  S
C1498      C1499   1.409       .  A
C1498      F1503   1.358   1_556  S
C1499      C1500   1.412       .  A
C1500      F1501   1.358       .  S
C1505      C1506   1.414   1_455  A
C1505      C1510   1.410       .  A
C1505      F1512   1.358       .  S
C1507      F1514   1.358   1_554  S
C1508      F1513   1.358       .  S
C1509      C1510   1.414       .  A
C1510      F1511   1.358       .  S
C1515      C1516   1.409       .  A
C1515      C1520   1.401   1_565  A
C1515      F1522   1.358       .  S
C1516      C1517   1.410       .  A
C1517      F1524   1.358       .  S
C1518      C1519   1.401       .  A
C1518      F1523   1.359       .  S
C1520      F1521   1.358       .  S
C1525      C1526   1.408       .  A
C1525      C1530   1.404       .  A
C1525      F1532   1.358       .  S
C1526      C1527   1.400       .  A
C1527      C1528   1.386       .  A
C1527      F1534   1.359       .  S
C1528      C1529   1.413       .  A
C1528      F1533   1.359       .  S
C1529      C1530   1.408       .  A
C1530      F1531   1.357       .  S
C1535      C1536   1.410       .  A
C1535      C1540   1.405   1_455  A
C1535      F1542   1.358       .  S
C1536      C1537   1.413       .  A
C1537      C1538   1.407   1_565  A
C1537      F1544   1.358       .  S
C1538      C1539   1.411   1_445  A
C1539      C1540   1.414       .  A
C1540      F1541   1.358       .  S
C1545      C1546   1.396   1_655  A
C1545      C1550   1.388       .  A
C1545      F1552   1.359       .  S
C1546      C1547   1.408       .  A
C1547      C1548   1.408       .  A
C1547      F1554   1.355       .  S
C1548      C1549   1.405   1_455  A
C1548      F1553   1.357       .  S
C1549      C1550   1.408       .  A
C1550      F1551   1.352       .  S
C1555      C1556   1.408       .  A
C1555      C1560   1.404       .  A
C1555      F1562   1.357       .  S
C1556      C1557   1.415       .  A
C1557      C1558   1.391       .  A
C1557      F1564   1.359       .  S
C1558      C1559   1.399       .  A
C1558      F1563   1.358       .  S
C1559      C1560   1.410       .  A
C1560      F1561   1.357       .  S
C1565      C1566   1.407       .  A
C1565      C1570   1.404       .  A
C1565      F1572   1.358       .  S
C1566      C1567   1.398       .  A
C1567      C1568   1.390       .  A
C1567      F1574   1.359       .  S
C1568      C1569   1.410       .  A
C1569      C1570   1.408       .  A
C1570      F1571   1.358       .  S
C1575      C1576   1.412       .  A
C1575      C1580   1.409       .  A
C1575      F1582   1.358       .  S
C1576      C1577   1.412       .  A
C1577      C1578   1.405       .  A
C1577      F1584   1.358       .  S
C1578      C1579   1.412       .  A
C1578      F1583   1.358       .  S
C1579      C1580   1.414       .  A
C1585      C1586   1.409       .  A
C1585      C1590   1.396       .  A
C1585      F1592   1.359       .  S
C1586      C1587   1.407       .  A
C1587      C1588   1.407       .  A
C1587      F1594   1.358       .  S
C1588      C1589   1.413       .  A
C1588      F1593   1.358       .  S
C1589      C1590   1.406       .  A
C1590      F1591   1.356       .  S
C1595      C1596   1.407       .  A
C1595      C1600   1.407       .  A
C1595      F1602   1.357       .  S
C1596      C1597   1.407       .  A
C1597      C1598   1.397       .  A
C1597      F1604   1.359       .  S
C1598      C1599   1.405       .  A
C1598      F1603   1.354       .  S
C1599      C1600   1.411       .  A
C1600      F1601   1.358       .  S
C1605      C1606   1.402       .  A
C1605      C1610   1.390       .  A
C1605      F1612   1.359       .  S
C1606      C1607   1.406       .  A
C1607      C1608   1.401       .  A
C1607      F1614   1.358       .  S
C1608      C1609   1.408       .  A
C1608      F1613   1.358       .  S
C1609      C1610   1.409       .  A
C1610      F1611   1.359       .  S
C1615      C1616   1.403       .  A
C1615      C1620   1.387       .  A
C1615      F1622   1.359       .  S
C1616      C1617   1.409       .  A
C1617      C1618   1.402       .  A
C1617      F1624   1.358       .  S
C1618      C1619   1.409       .  A
C1619      C1620   1.412       .  A
C1620      F1621   1.359       .  S
C1625      C1626   1.414       .  A
C1625      C1630   1.408       .  A
C1625      F1632   1.358       .  S
C1626      C1627   1.412       .  A
C1627      C1628   1.407       .  A
C1627      F1634   1.358       .  S
C1628      C1629   1.413       .  A
C1628      F1633   1.358       .  S
C1629      C1630   1.411       .  A
C1630      F1631   1.358       .  S
C1635      C1636   1.415       .  A
C1635      C1640   1.390       .  A
C1635      F1642   1.359       .  S
C1636      C1637   1.406       .  A
C1637      C1638   1.408       .  A
C1637      F1644   1.357       .  S
C1638      C1639   1.413       .  A
C1638      F1643   1.358       .  S
C1639      C1640   1.400       .  A
C1640      F1641   1.357       .  S
C1645      C1646   1.413       .  A
C1645      C1650   1.406       .  A
C1645      F1652   1.358       .  S
C1646      C1647   1.405       .  A
C1647      C1648   1.395       .  A
C1647      F1654   1.356       .  S
C1648      C1649   1.410       .  A
C1648      F1653   1.359       .  S
C1649      C1650   1.406       .  A
C1650      F1651   1.357       .  S
C1655      C1656   1.412       .  A
C1655      C1660   1.388       .  A
C1655      F1662   1.357       .  S
C1656      C1657   1.406       .  A
C1657      C1658   1.409       .  A
C1657      F1664   1.357       .  S
C1658      C1659   1.409       .  A
C1658      F1663   1.356       .  S
C1659      C1660   1.395       .  A
C1660      F1661   1.359       .  S
