geometry optimzed in LAMMPS
_audit_creation_date              2020-11-30 
_audit_creation_method            'lammps2cif' 
_symmetry_space_group_name_H-M    'P1' 
_symmetry_Int_Tables_number       1 
_symmetry_cell_setting            triclinic 
loop_ 
_symmetry_equiv_pos_as_xyz 
  x,y,z 
_cell_length_a                    64.50583714 
_cell_length_b                    64.59820000008514 
_cell_length_c                    37.17120062539913 
_cell_angle_alpha                 89.95795254419669 
_cell_angle_beta                  90.0131788522914 
_cell_angle_gamma                 119.5321675539842 
loop_ 
_atom_site_label 
_atom_site_type_symbol 
_atom_site_fract_x 
_atom_site_fract_y 
_atom_site_fract_z 
_atom_site_charge 
O1          O  0.14624956  0.50487941  0.16405176    -0.85500
O2          O  0.15151099  0.50974509  0.23735236    -0.82500
C3          C  0.13132321  0.50785831  0.24215341     0.98000
O4          O  0.11309778  0.48786685  0.23778419    -0.82500
O5          O  0.08314487  0.44243886  0.21298682    -0.85200
C6          C  0.07854873  0.44105441  0.17947096     1.02500
O7          O  0.09432761  0.44503022  0.15652514    -0.78000
O8          O  0.13670332  0.47457895  0.12751119    -0.78100
C9          C  0.13875165  0.49496106  0.13396455     1.02500
O10         O  0.17617403  0.48441667  0.16155114    -0.85500
O11         O  0.17350639  0.48094649  0.23528182    -0.82500
C12         C  0.16437955  0.47360019  0.26589593     0.98000
O13         O  0.14380618  0.47091542  0.27334913    -0.82600
O14         O  0.11443647  0.42777804  0.24659233    -0.85200
C15         C  0.11041936  0.41165130  0.22432341     1.02500
O16         O  0.11084700  0.41547864  0.19068505    -0.78000
O17         O  0.15560538  0.44602287  0.16413616    -0.78100
C18         C  0.17495691  0.46449915  0.15741900     1.02400
Cr19       Cr  0.15987657  0.49296828  0.19968359     1.93700
Cr20       Cr  0.11489188  0.45796383  0.23972125     1.93200
Cr21       Cr  0.12510987  0.44663231  0.16263983     1.39100
O22         O  0.13288751  0.46548190  0.20070372    -1.23200
O23         O  0.97249783  0.16113884  0.40802200    -0.85500
O24         O  0.97330575  0.15799394  0.33485967    -0.82500
C25         C  0.95575783  0.16123623  0.32988344     0.98000
O26         O  0.95838860  0.18164201  0.33488016    -0.82500
O27         O  0.97569069  0.22724456  0.36082528    -0.85200
C28         C  0.97047114  0.22658741  0.39396410     1.02500
O29         O  0.98028145  0.22023262  0.41726548    -0.78000
O30         O  0.99329199  0.19028806  0.44602799    -0.78100
C31         C  0.97493403  0.17032903  0.43869160     1.02500
O32         O  0.02305577  0.18051488  0.41115634    -0.85500
O33         O  0.02402441  0.18495806  0.33782040    -0.82500
C34         C  0.02238790  0.19254102  0.30729701     0.98000
O35         O  0.00503388  0.19607938  0.30005998    -0.82600
O36         O  0.02136536  0.23926349  0.32901202    -0.85200
C37         C  0.03173267  0.25510377  0.35232986     1.02500
O38         O  0.02662079  0.25064072  0.38553299    -0.78000
O39         O  0.04074393  0.21907481  0.41108150    -0.78100
C40         C  0.04165858  0.20027557  0.41623544     1.02400
Cr41       Cr  0.99831415  0.17311540  0.37296905     1.93700
Cr42       Cr  0.99057287  0.21027168  0.33408270     1.93200
Cr43       Cr  0.00974529  0.21885704  0.41212170     1.39100
O44         O  0.99954681  0.20105625  0.37306056    -1.23200
O45         O  0.82346233  0.31303702  0.99956073    -0.85500
O46         O  0.81973823  0.31171057  0.07342211    -0.82500
C47         C  0.82024232  0.29257390  0.07730000     0.98000
O48         O  0.83931415  0.29245845  0.07052216    -0.82500
O49         O  0.88455474  0.30555921  0.04454439    -0.85200
C50         C  0.88592208  0.30304812  0.01086082     1.02500
O51         O  0.88203723  0.31546953  0.98881250    -0.78000
O52         O  0.85423410  0.33197703  0.47098673    -0.78100
C53         C  0.83303254  0.31533428  0.47769913     1.02500
O54         O  0.84723204  0.36300683  0.00036556    -0.85500
O55         O  0.85198591  0.36178359  0.07372349    -0.82500
C56         C  0.85871668  0.35785738  0.10354442     0.98000
O57         O  0.85916764  0.33858170  0.10900752    -0.82600
O58         O  0.90173312  0.35052851  0.08076987    -0.85200
C59         C  0.91798259  0.36207621  0.05840138     1.02500
O60         O  0.91380777  0.35970273  0.02478662    -0.78000
O61         O  0.88472394  0.37849231  0.50770286    -0.78100
C62         C  0.86631635  0.38017489  0.50317713     1.02400
Cr63       Cr  0.83756813  0.33721309  0.03679149     1.93700
Cr64       Cr  0.87052237  0.32246110  0.07324004     1.93200
Cr65       Cr  0.88327186  0.34701417  0.50402475     1.39100
O66         O  0.86381169  0.33491308  0.03562202    -1.23200
O67         O  0.84732059  0.48965298  0.24848999    -0.85500
O68         O  0.85116050  0.49306155  0.32258003    -0.82500
C69         C  0.85746915  0.50258622  0.35322390     0.98000
O70         O  0.85901158  0.52270954  0.35975930    -0.82500
O71         O  0.90212621  0.55309053  0.33341648    -0.85200
C72         C  0.91850759  0.55751316  0.31135763     1.02500
O73         O  0.91474319  0.55637352  0.27762737    -0.78000
O74         O  0.88568779  0.51110040  0.25072191    -0.78100
C75         C  0.86747384  0.49159667  0.24355045     1.02500
O76         O  0.82512140  0.51772001  0.25017128    -0.85500
O77         O  0.82040673  0.51267773  0.32372885    -0.82500
C78         C  0.82117931  0.53231964  0.32857004     0.98000
O79         O  0.84047395  0.55118993  0.32322869    -0.82600
O80         O  0.88565281  0.58234920  0.29878025    -0.85200
C81         C  0.88712896  0.58673918  0.26528523     1.02500
O82         O  0.88410209  0.57115209  0.24253701    -0.78000
O83         O  0.85583349  0.52832503  0.21375669    -0.78100
C84         C  0.83497804  0.52522028  0.21997348     1.02400
Cr85       Cr  0.83798317  0.50527640  0.28634320     1.93700
Cr86       Cr  0.87122272  0.55103908  0.32574226     1.93200
Cr87       Cr  0.88376752  0.54100492  0.24912558     1.39100
O88         O  0.86471281  0.53286476  0.28705356    -1.23200
O89         O  0.17610398  0.68863982  0.41980968    -0.85500
O90         O  0.17262374  0.68687290  0.49318781    -0.82500
C91         C  0.16453430  0.68521888  0.02507803     0.98000
O92         O  0.14294836  0.66878573  0.02976277    -0.82500
O93         O  0.11580301  0.68492011  0.50172863    -0.85200
C94         C  0.10989322  0.69552634  0.47922084     1.02500
O95         O  0.10880857  0.69058985  0.44582135    -0.78000
O96         O  0.15405683  0.70548579  0.41943400    -0.78100
C97         C  0.17400311  0.70684412  0.41495694     1.02500
O98         O  0.14630512  0.63834591  0.41881490    -0.85500
O99         O  0.14898452  0.63632233  0.49163675    -0.82500
C100        C  0.13045381  0.62065046  0.99476741     0.98000
O101        O  0.11262749  0.62336521  0.99011681    -0.82600
O102        O  0.08235906  0.64015607  0.46783709    -0.85200
C103        C  0.07801892  0.63517810  0.43458300     1.02500
O104        O  0.09429450  0.64492060  0.41172900    -0.78000
O105        O  0.13703952  0.65914801  0.38204530    -0.78100
C106        C  0.14012072  0.64134834  0.38802036     1.02400
Cr107      Cr  0.15902722  0.66268036  0.45581551     1.93700
Cr108      Cr  0.11535455  0.65536626  0.99366508     1.93200
Cr109      Cr  0.12426160  0.67447239  0.41768096     1.39100
O110        O  0.13226431  0.66387915  0.45620064    -1.23200
O111        O  0.02353675  0.84172073  0.16533577    -0.85500
O112        O  0.02729425  0.83938540  0.09201537    -0.82500
C113        C  0.02628899  0.83046950  0.06141612     0.98000
O114        O  0.00848399  0.81026406  0.05303999    -0.82500
O115        O  0.02021201  0.77974356  0.08196200    -0.85200
C116        C  0.03166106  0.77548307  0.10525896     1.02500
O117        O  0.02751886  0.77598924  0.13865512    -0.78000
O118        O  0.04103040  0.82048877  0.16575877    -0.78100
C119        C  0.04192395  0.84011346  0.17090778     1.02500
O120        O  0.97364723  0.81306880  0.15892747    -0.85500
O121        O  0.97719544  0.81891692  0.08512025    -0.82500
C122        C  0.95880354  0.79912464  0.07999786     0.98000
O123        O  0.95984761  0.78055209  0.08595026    -0.82600
O124        O  0.97354221  0.74954639  0.11208768    -0.85200
C125        C  0.96916616  0.74481125  0.14532504     1.02500
O126        O  0.98048761  0.76010558  0.16896473    -0.78000
O127        O  0.99239678  0.80231544  0.19796884    -0.78100
C128        C  0.97488611  0.80556415  0.18982378     1.02400
Cr129      Cr  0.00040878  0.82627613  0.12533933     1.93700
Cr130      Cr  0.99100135  0.78127909  0.08618433     1.93200
Cr131      Cr  0.00987172  0.79047401  0.16488150     1.39100
O132        O  0.00046697  0.79894237  0.12550104    -1.23200
O133        O  0.30705031  0.82088031  0.24024792    -0.85500
O134        O  0.30788845  0.81986013  0.16691686    -0.82500
C135        C  0.28918780  0.82132037  0.16368949     0.98000
O136        O  0.29012345  0.84088467  0.17013424    -0.82500
O137        O  0.30529563  0.88601396  0.19830758    -0.85200
C138        C  0.30153882  0.88632300  0.23179798     1.02500
O139        O  0.31220222  0.88047169  0.25439276    -0.78000
O140        O  0.32542401  0.84973447  0.27977908    -0.78100
C141        C  0.30829826  0.82915169  0.27133029     1.02500
O142        O  0.35692388  0.84208850  0.24349496    -0.85500
O143        O  0.35835096  0.84953036  0.17048774    -0.82500
C144        C  0.35587590  0.85740972  0.14073529     0.90800
O145        O  0.33736842  0.85921124  0.13438309    -0.82600
O146        O  0.35080090  0.90108802  0.16575413    -0.85200
C147        C  0.36222254  0.91650339  0.18924917     1.02500
O148        O  0.35860883  0.91138436  0.22254437    -0.78000
O149        O  0.37318336  0.88037274  0.24601042    -0.78100
C150        C  0.37489168  0.86195910  0.24987585     1.02400
Cr151      Cr  0.33254617  0.83510453  0.20536773     1.93700
Cr152      Cr  0.32139003  0.87094533  0.17005022     1.93200
Cr153      Cr  0.34177005  0.87921969  0.24771413     1.39100
O154        O  0.33176037  0.86206524  0.20790427    -1.23200
O155        O  0.15887952  0.97551700  0.33955468    -0.85500
O156        O  0.15743199  0.97622928  0.41286774    -0.82500
C157        C  0.15990274  0.95825604  0.41762999     0.98000
O158        O  0.18006148  0.96003931  0.41266019    -0.82500
O159        O  0.22571688  0.97629059  0.38508888    -0.85200
C160        C  0.22403658  0.97000980  0.35232545     1.02500
O161        O  0.21626825  0.97857514  0.32909444    -0.78000
O162        O  0.18800722  0.99407660  0.30055403    -0.78100
C163        C  0.16700787  0.97758908  0.30815046     1.02500
O164        O  0.18084469  0.02566421  0.33711341    -0.85500
O165        O  0.18577517  0.02656633  0.41062232    -0.82500
C166        C  0.19185187  0.02357520  0.44159114     0.98000
O167        O  0.19630103  0.00668191  0.44734930    -0.82600
O168        O  0.23904548  0.02237400  0.41540257    -0.85200
C169        C  0.25451892  0.03144898  0.39110603     1.02500
O170        O  0.24927522  0.02505529  0.35847903    -0.78000
O171        O  0.21925284  0.04117526  0.33320657    -0.78100
C172        C  0.20088493  0.04318207  0.32974446     1.02400
Cr173      Cr  0.17281684  0.00102727  0.37493648     1.93700
Cr174      Cr  0.20947388  0.99179288  0.41221554     1.93200
Cr175      Cr  0.21702167  0.00926916  0.33336958     1.39100
O176        O  0.20000309  0.00071284  0.37345472    -1.23200
O177        O  0.49732455  0.15338424  0.09427094    -0.85500
O178        O  0.50886579  0.13614829  0.03594046    -0.82500
C179        C  0.50826028  0.12705843  0.50877228     0.98000
O180        O  0.48871031  0.11584143  0.49209334    -0.82500
O181        O  0.45507206  0.08157947  0.04127897    -0.85200
C182        C  0.44107914  0.07425104  0.06810024     1.02500
O183        O  0.43001679  0.08507937  0.07689854    -0.78000
O184        O  0.46787243  0.11944652  0.11315877    -0.78100
C185        C  0.48945256  0.13560134  0.11520944     1.02500
O186        O  0.47642098  0.17404187  0.04817510    -0.85500
O187        O  0.48912268  0.15940401  0.48485197    -0.82500
C188        C  0.47084219  0.15018392  0.46488799     0.98000
O189        O  0.45396409  0.12939013  0.47101155    -0.82600
O190        O  0.41971718  0.09252077  0.01457636    -0.85200
C191        C  0.40895818  0.10347221  0.02412666     1.02500
O192        O  0.41810648  0.11948147  0.04815427    -0.78000
O193        O  0.45365567  0.15390079  0.09330368    -0.78100
C194        C  0.46463241  0.17308554  0.07575093     1.02400
Cr195      Cr  0.49081968  0.15336091  0.04165367     1.93700
Cr196      Cr  0.45544583  0.10718642  0.50683561     1.93200
Cr197      Cr  0.44371045  0.12016576  0.08028314     1.39100
O198        O  0.46311157  0.12671699  0.04321095    -1.23200
O199        O  0.84255367  0.02432439  0.08878651    -0.85500
O200        O  0.83937046  0.02678889  0.16224698    -0.82500
C201        C  0.82995317  0.02600956  0.19233648     0.98000
O202        O  0.80950158  0.00848775  0.20029476    -0.82500
O203        O  0.78045405  0.02202488  0.17095774    -0.85200
C204        C  0.77637317  0.03340638  0.14735271     1.02500
O205        O  0.77672807  0.02897165  0.11413020    -0.78000
O206        O  0.82176345  0.04231619  0.08903667    -0.78100
C207        C  0.84116798  0.04282992  0.08298135     1.02500
O208        O  0.81256221  0.97423152  0.09357056    -0.85500
O209        O  0.81753113  0.97649738  0.16739502    -0.82500
C210        C  0.79733338  0.95867716  0.17286290     0.98000
O211        O  0.77912672  0.96055552  0.16730910    -0.82600
O212        O  0.74929618  0.97550587  0.13971165    -0.85200
C213        C  0.74501883  0.97122822  0.10631222     1.02500
O214        O  0.76087102  0.98245356  0.08323754    -0.78000
O215        O  0.80358181  0.99465767  0.05506978    -0.78100
C216        C  0.80584860  0.97656266  0.06266363     1.02400
Cr217      Cr  0.82602807  0.00049000  0.12803403     1.93700
Cr218      Cr  0.78086604  0.99213220  0.16662477     1.93200
Cr219      Cr  0.79141148  0.01153957  0.08836545     1.39100
O220        O  0.79903704  0.00135186  0.12768334    -1.23200
O221        O  0.48997470  0.84774007  0.49773112    -0.85500
O222        O  0.49313757  0.85089621  0.42391142    -0.82500
C223        C  0.50249479  0.85704334  0.39315303     0.98000
O224        O  0.52292662  0.85916115  0.38662971    -0.82500
O225        O  0.55362893  0.90271940  0.41266885    -0.85200
C226        C  0.55869675  0.91930413  0.43471506     1.02500
O227        O  0.55696763  0.91526501  0.46843270    -0.78000
O228        O  0.51087703  0.88505654  0.99455394    -0.78100
C229        C  0.49149063  0.86658842  0.00139085     1.02500
O230        O  0.51966391  0.82576758  0.99420148    -0.85500
O231        O  0.51318065  0.82072333  0.42331015    -0.82500
C232        C  0.53285766  0.82138862  0.41975443     0.98000
O233        O  0.55163950  0.84092284  0.42441126    -0.82600
O234        O  0.58285895  0.88650093  0.44792288    -0.85200
C235        C  0.58723987  0.88817769  0.48146903     1.02500
O236        O  0.57144571  0.88469370  0.50416819    -0.78000
O237        O  0.52880174  0.85585859  0.03118479    -0.78100
C238        C  0.52651696  0.83539950  0.02463923     1.02400
Cr239      Cr  0.50568000  0.83829658  0.46033823     1.93700
Cr240      Cr  0.55143622  0.87167281  0.42080627     1.93200
Cr241      Cr  0.54122091  0.88409234  0.99661235     1.39100
O242        O  0.53319291  0.86519375  0.45935782    -1.23200
O243        O  0.69114315  0.18041428  0.33216955    -0.85500
O244        O  0.68984699  0.17696743  0.25908017    -0.82500
C245        C  0.68798148  0.16829785  0.22813197     0.98000
O246        O  0.67137627  0.14712495  0.22150204    -0.82500
O247        O  0.68924549  0.12107727  0.24968702    -0.85200
C248        C  0.70043730  0.11572067  0.27195180     1.02500
O249        O  0.69570570  0.11460946  0.30534117    -0.78000
O250        O  0.70923257  0.15954056  0.33194940    -0.78100
C251        C  0.70984570  0.17912356  0.33671828     1.02500
O252        O  0.64100758  0.14991301  0.33384199    -0.85500
O253        O  0.63896342  0.15264345  0.26002830    -0.82500
C254        C  0.62210247  0.13197840  0.25334203     0.98000
O255        O  0.62539167  0.11445861  0.25738186    -0.82600
O256        O  0.64452687  0.08682974  0.28280202    -0.85200
C257        C  0.64026364  0.08195454  0.31615472     1.02500
O258        O  0.64968690  0.09803915  0.33941856    -0.78000
O259        O  0.66280395  0.14066492  0.36905720    -0.78100
C260        C  0.64505372  0.14396181  0.36425063     1.02400
Cr261      Cr  0.66530242  0.16290319  0.29612541     1.93700
Cr262      Cr  0.65809437  0.11861201  0.25599243     1.93200
Cr263      Cr  0.67864250  0.12891541  0.33341404     1.39100
O264        O  0.66719380  0.13648627  0.29527630    -1.23200
O265        O  0.51390455  0.35599623  0.25873397    -0.85500
O266        O  0.50781999  0.35463556  0.33185800    -0.82500
C267        C  0.49752009  0.35163861  0.36178575     0.98000
O268        O  0.47768770  0.33276481  0.36769450    -0.82500
O269        O  0.44780822  0.34553918  0.33844410    -0.85200
C270        C  0.44257089  0.35648556  0.31552603     1.02500
O271        O  0.44386598  0.35318537  0.28201085    -0.78000
O272        O  0.49016062  0.37077649  0.25729811    -0.78100
C273        C  0.51060822  0.37334816  0.25244015     1.02500
O274        O  0.48763690  0.30563522  0.25775507    -0.85500
O275        O  0.48926074  0.30444523  0.33217114    -0.82500
C276        C  0.46952703  0.28561546  0.33579955     0.98000
O277        O  0.45065900  0.28615491  0.32927928    -0.82600
O278        O  0.41925107  0.30041896  0.30332716    -0.85200
C279        C  0.41542805  0.29702107  0.26971297     1.02500
O280        O  0.43186307  0.30837223  0.24753368    -0.78000
O281        O  0.47595402  0.32470482  0.22083840    -0.78100
C282        C  0.48153943  0.30853880  0.22668714     1.02400
Cr283      Cr  0.49748861  0.33000181  0.29515415     1.93700
Cr284      Cr  0.45024582  0.31680673  0.33172357     1.93200
Cr285      Cr  0.46119004  0.33865282  0.25500309     1.39100
O286        O  0.46928778  0.32842357  0.29383203    -1.23200
O287        O  0.18345410  0.15927330  0.08544824    -0.85500
O288        O  0.18623499  0.16175319  0.15869639    -0.82500
C289        C  0.19307789  0.17058381  0.18956780     0.98000
O290        O  0.19568663  0.19102964  0.19726494    -0.82500
O291        O  0.23889330  0.22109875  0.17106446    -0.85200
C292        C  0.25517176  0.22553985  0.14880384     1.02500
O293        O  0.25144652  0.22549842  0.11518351    -0.78000
O294        O  0.22199482  0.18079618  0.08739584    -0.78100
C295        C  0.20368456  0.16107695  0.08163814     1.02500
O296        O  0.16204045  0.18871117  0.08740213    -0.85500
O297        O  0.15685508  0.18271005  0.16088489    -0.82500
C298        C  0.15841920  0.20261333  0.16670019     0.98000
O299        O  0.17813171  0.22107080  0.16195661    -0.82600
O300        O  0.22324495  0.25181202  0.13807461    -0.85200
C301        C  0.22412936  0.25652635  0.10470865     1.02500
O302        O  0.22087105  0.24115527  0.08139841    -0.78000
O303        O  0.19267825  0.19866889  0.05123891    -0.78100
C304        C  0.17202790  0.19608151  0.05729336     1.02400
Cr305      Cr  0.17413855  0.17516328  0.12315741     1.93700
Cr306      Cr  0.20835586  0.21998778  0.16406182     1.93200
Cr307      Cr  0.22043090  0.21082033  0.08673844     1.39100
O308        O  0.20138326  0.20232423  0.12472536    -1.23200
O309        O  0.35777288  0.50795547  0.49559969    -0.85500
O310        O  0.35857467  0.50534858  0.42204039    -0.82500
C311        C  0.35645885  0.49615378  0.39140465     0.98000
O312        O  0.33842456  0.47606240  0.38370615    -0.82500
O313        O  0.35144412  0.44554745  0.41016224    -0.85200
C314        C  0.36228765  0.43986327  0.43262513     1.02500
O315        O  0.35884198  0.44058530  0.46622716    -0.78000
O316        O  0.37722908  0.48878852  0.99197089    -0.78100
C317        C  0.37883622  0.50864325  0.99811520     1.02500
O318        O  0.31044127  0.48307687  0.99058635    -0.85500
O319        O  0.30829865  0.48514278  0.41917906    -0.82500
C320        C  0.29006416  0.46535289  0.41304270     0.98000
O321        O  0.29116302  0.44671321  0.41846428    -0.82600
O322        O  0.30550285  0.41553823  0.44299624    -0.85200
C323        C  0.30164749  0.41094494  0.47636493     1.02500
O324        O  0.31328399  0.42643460  0.49962762    -0.78000
O325        O  0.33053723  0.47299545  0.02821999    -0.78100
C326        C  0.31253459  0.47552513  0.02098192     1.02400
Cr327      Cr  0.33297516  0.49243582  0.45730528     1.93700
Cr328      Cr  0.32225809  0.44726290  0.41686853     1.93200
Cr329      Cr  0.34569993  0.45929471  0.99457157     1.39100
O330        O  0.33284413  0.46499798  0.45610620    -1.23200
O331        O  0.49240596  0.63980313  0.17391398    -0.85500
O332        O  0.48881293  0.64023558  0.24743294    -0.82500
C333        C  0.49105027  0.62215145  0.25236572     0.98000
O334        O  0.51080119  0.62352892  0.24594923    -0.82500
O335        O  0.55619595  0.63919423  0.21997469    -0.85200
C336        C  0.55632162  0.63542644  0.18639024     1.02500
O337        O  0.55129736  0.64674546  0.16392539    -0.78000
O338        O  0.52202930  0.66068268  0.13652537    -0.78100
C339        C  0.50187066  0.64242704  0.14335189     1.02500
O340        O  0.51276554  0.69008384  0.17202957    -0.85500
O341        O  0.51686914  0.69023361  0.24565971    -0.82500
C342        C  0.52379020  0.68761996  0.27621106     0.98000
O343        O  0.52707674  0.66999197  0.28262848    -0.82600
O344        O  0.57014856  0.68454193  0.25413401    -0.85200
C345        C  0.58617420  0.69574898  0.23136179     1.02500
O346        O  0.58196002  0.69203591  0.19786771    -0.78000
O347        O  0.55128706  0.70724104  0.17330604    -0.78100
C348        C  0.53273115  0.70843858  0.16740845     1.02400
Cr349      Cr  0.50466192  0.66510967  0.20967400     1.93700
Cr350      Cr  0.54035766  0.65488325  0.24778530     1.93200
Cr351      Cr  0.55041504  0.67614475  0.17081443     1.39100
O352        O  0.53218707  0.66541443  0.20946733    -1.23200
O353        O  0.63957434  0.49022094  0.07071888    -0.85500
O354        O  0.64006382  0.48762094  0.99695398    -0.82500
C355        C  0.61914376  0.48880245  0.49837086     0.98000
O356        O  0.62141133  0.50926609  0.50122636    -0.82500
O357        O  0.63594673  0.55324236  0.02507548    -0.85200
C358        C  0.63244414  0.55376982  0.05861060     1.02500
O359        O  0.64417592  0.54931718  0.08114346    -0.78000
O360        O  0.65831602  0.52001580  0.10865251    -0.78100
C361        C  0.64138911  0.49894667  0.10171043     1.02500
O362        O  0.68982479  0.51233007  0.07254273    -0.85500
O363        O  0.68770999  0.51403132  0.50278971    -0.82500
C364        C  0.68450825  0.51962379  0.47162723     0.98000
O365        O  0.66771580  0.52417248  0.46536945    -0.82600
O366        O  0.68148590  0.56912862  0.99110738    -0.85200
C367        C  0.69282708  0.58514552  0.01387530     1.02500
O368        O  0.68974931  0.58059764  0.04747065    -0.78000
O369        O  0.70564569  0.55065257  0.07308276    -0.78100
C370        C  0.70765580  0.53248088  0.07807617     1.02400
Cr371      Cr  0.66486825  0.50398568  0.03481508     1.93700
Cr372      Cr  0.65338410  0.53846780  0.49932929     1.93200
Cr373      Cr  0.67394344  0.54886801  0.07461974     1.39100
O374        O  0.66381570  0.53083393  0.03571736    -1.23200
O375        O  0.81382198  0.84062452  0.34240616    -0.85500
O376        O  0.81749540  0.84423393  0.41556995    -0.82500
C377        C  0.79736608  0.84265843  0.41994754     0.98000
O378        O  0.77897952  0.82303570  0.41406591    -0.82500
O379        O  0.74873415  0.77734609  0.38963924    -0.85200
C380        C  0.74442867  0.77714055  0.35622384     1.02500
O381        O  0.76052216  0.78238698  0.33338060    -0.78000
O382        O  0.80319811  0.81065747  0.30491980    -0.78100
C383        C  0.80577107  0.83114040  0.31227405     1.02500
O384        O  0.84253913  0.81851420  0.34047335    -0.85500
O385        O  0.83840815  0.81436277  0.41414248    -0.82500
C386        C  0.82903956  0.80807041  0.44485093     0.98000
O387        O  0.80862240  0.80595153  0.45130425    -0.82600
O388        O  0.77977060  0.76281330  0.42343512    -0.85200
C389        C  0.77432765  0.74661523  0.40068060     1.02500
O390        O  0.77475603  0.75086229  0.36710514    -0.78000
O391        O  0.82023952  0.78012511  0.34015362    -0.78100
C392        C  0.84022844  0.79823640  0.33483200     1.02400
Cr393      Cr  0.82613407  0.82747054  0.37811531     1.93700
Cr394      Cr  0.78032595  0.79301622  0.41666134     1.93200
Cr395      Cr  0.79046324  0.78225552  0.33933863     1.39100
O396        O  0.79868388  0.80053373  0.37802512    -1.23200
C397        C  0.72659973  0.65193815  0.50476863    -0.27700
C398        C  0.73460869  0.65401204  0.46899957     0.01900
C399        C  0.73150162  0.63349109  0.45118528     0.30000
C400        C  0.71921618  0.61124627  0.46804849    -0.19500
C401        C  0.70916161  0.60943402  0.99912803    -0.28900
C402        C  0.71474404  0.63061493  0.01764058     0.44000
C403        C  0.74560182  0.67742169  0.45002327     0.05200
O404        O  0.74080338  0.63511273  0.41741141    -0.57400
H405        H  0.71664935  0.59572606  0.45320469     0.18100
O406        O  0.70707244  0.62981329  0.05226524    -0.64200
H407        H  0.72916268  0.66762246  0.51911211     0.16600
C408        C  0.73590086  0.68037743  0.41757661     0.28800
C409        C  0.74641984  0.70256446  0.40010703    -0.25100
C410        C  0.76626382  0.72233273  0.41506053    -0.24300
C411        C  0.77600851  0.71930065  0.44747978     0.40300
C412        C  0.76570840  0.69707079  0.46458326    -0.26800
O413        O  0.71550392  0.66193120  0.40348413    -0.58700
H414        H  0.73821206  0.70462472  0.37594265     0.15900
O415        O  0.79527772  0.73817223  0.46329807    -0.60100
H416        H  0.77337858  0.69520092  0.48947763     0.14400
H417        H  0.72113432  0.63376449  0.06756861     0.46200
H418        H  0.70226035  0.66197267  0.41699327     0.41600
H419        H  0.80938950  0.73953299  0.45051622     0.45000
H420        H  0.72688519  0.62703600  0.40111674     0.36500
C421        C  0.65292581  0.72777325  0.24935480    -0.27700
C422        C  0.65369496  0.73713770  0.28383531     0.01900
C423        C  0.63278481  0.73530454  0.29840587     0.30000
C424        C  0.61133424  0.72333064  0.27943123    -0.19500
C425        C  0.61009809  0.71261473  0.24590863    -0.28900
C426        C  0.63127121  0.71539964  0.23048656     0.44000
C427        C  0.67625932  0.74850076  0.30470672     0.05200
O428        O  0.63322050  0.74533972  0.33112387    -0.57400
H429        H  0.59533547  0.72167370  0.29169006     0.18100
O430        O  0.63083860  0.70511696  0.19803073    -0.64200
H431        H  0.66899332  0.72925282  0.23769174     0.16600
C432        C  0.67858767  0.73852858  0.33724768     0.28800
C433        C  0.70040476  0.74913592  0.35582431    -0.25100
C434        C  0.72022982  0.76947629  0.34198942    -0.24300
C435        C  0.71752648  0.77986220  0.31006858     0.40300
C436        C  0.69576391  0.76932299  0.29169481    -0.26800
O437        O  0.65995924  0.71783055  0.35025438    -0.58700
H438        H  0.70222588  0.74059363  0.37977354     0.15900
O439        O  0.73640722  0.79986960  0.29578422    -0.60100
H440        H  0.69419140  0.77727288  0.26689451     0.14400
H441        H  0.62806441  0.68898054  0.20400936     0.46200
H442        H  0.66135715  0.70488484  0.33817321     0.41600
H443        H  0.73542868  0.81341339  0.30651452     0.45000
H444        H  0.62580349  0.73184786  0.34829076     0.36500
C445        C  0.59213356  0.56132037  0.12474916    -0.27700
C446        C  0.59098833  0.58070226  0.11014587     0.01900
C447        C  0.60094842  0.58925564  0.07581135     0.30000
C448        C  0.61303372  0.57924123  0.05760502    -0.19500
C449        C  0.61528248  0.56065507  0.07323603    -0.28900
C450        C  0.60390591  0.55118211  0.10653778     0.44000
C451        C  0.58041421  0.59251620  0.13184671     0.05200
O452        O  0.60061723  0.60860080  0.06121250    -0.57400
H453        H  0.62187092  0.58698159  0.03236395     0.18100
O454        O  0.60508323  0.53259641  0.12238160    -0.64200
H455        H  0.58427560  0.55432761  0.15082675     0.16600
C456        C  0.56060619  0.59391675  0.11928650     0.28800
C457        C  0.55208583  0.60667557  0.13881511    -0.25100
C458        C  0.56289684  0.61817175  0.17130358    -0.24300
C459        C  0.58190627  0.61567506  0.18494749     0.40300
C460        C  0.59043554  0.60278446  0.16532509    -0.26800
O461        O  0.54974767  0.58329370  0.08754079    -0.58700
H462        H  0.53731571  0.60820634  0.12787268     0.15900
O463        O  0.59308966  0.62678492  0.21625227    -0.60100
H464        H  0.60556052  0.60162314  0.17554902     0.14400
H465        H  0.59212848  0.51805672  0.11109144     0.46200
H466        H  0.53690313  0.56718447  0.09437571     0.41600
H467        H  0.60643593  0.64244838  0.20870903     0.45000
H468        H  0.58873443  0.60214244  0.04151129     0.36500
C469        C  0.45283760  0.55985980  0.29090677    -0.27700
C470        C  0.43156939  0.56003740  0.29815155     0.01900
C471        C  0.42978363  0.58024451  0.28931811     0.30000
C472        C  0.44913963  0.59998588  0.27380579    -0.19500
C473        C  0.47067344  0.60015634  0.26696381    -0.28900
C474        C  0.47233106  0.57970091  0.27542409     0.44000
C475        C  0.41248738  0.54054521  0.31917275     0.05200
O476        O  0.40982287  0.58154688  0.29830819    -0.57400
H477        H  0.44736838  0.61547746  0.26799303     0.18100
O478        O  0.49290881  0.57895207  0.26922016    -0.64200
H479        H  0.45450099  0.54448625  0.29811977     0.16600
C480        C  0.38885507  0.52772393  0.30640747     0.28800
C481        C  0.37055121  0.51209178  0.32941876    -0.25100
C482        C  0.37563958  0.50941211  0.36523329    -0.24300
C483        C  0.39950873  0.52122485  0.37718973     0.40300
C484        C  0.41767821  0.53653907  0.35417606    -0.26800
O485        O  0.38337240  0.53111624  0.27204860    -0.58700
H486        H  0.35231449  0.50305151  0.31987382     0.15900
O487        O  0.40516171  0.51871942  0.41193393    -0.60100
H488        H  0.43575926  0.54627954  0.36431657     0.14400
H489        H  0.50201478  0.58425787  0.29205127     0.46200
H490        H  0.38666846  0.52048337  0.25681605     0.41600
H491        H  0.40654836  0.50410270  0.41189992     0.45000
H492        H  0.40150420  0.58014319  0.27524522     0.36500
C493        C  0.43940866  0.54534172  0.04307887    -0.27700
C494        C  0.44051886  0.56752909  0.04635742     0.01900
C495        C  0.42225317  0.57064608  0.03125864     0.30000
C496        C  0.40284242  0.55156150  0.01448115    -0.19500
C497        C  0.40104698  0.52897120  0.01258501    -0.28900
C498        C  0.41997591  0.52618528  0.02618946     0.44000
C499        C  0.45887789  0.58630307  0.06954437     0.05200
O500        O  0.42259060  0.59197257  0.03435957    -0.57400
H501        H  0.38874850  0.55434152  0.00391830     0.18100
O502        O  0.41912817  0.50456706  0.02498231    -0.64200
H503        H  0.45331276  0.54266505  0.05472174     0.16600
C504        C  0.45993980  0.58168100  0.10626753     0.28800
C505        C  0.47479795  0.60009378  0.12928421    -0.25100
C506        C  0.48883307  0.62346988  0.11651944    -0.24300
C507        C  0.48880467  0.62796870  0.07946704     0.40300
C508        C  0.47366389  0.60944841  0.05625958    -0.26800
O509        O  0.44564876  0.55941614  0.12031458    -0.58700
H510        H  0.47483900  0.59613891  0.15762873     0.15900
O511        O  0.50217276  0.65056162  0.06610647    -0.60100
H512        H  0.47296786  0.61326396  0.02804052     0.14400
H513        H  0.42268691  0.49995119  0.51681642     0.46200
H514        H  0.43059128  0.55907251  0.12699188     0.41600
H515        H  0.51736320  0.65160705  0.05829049     0.45000
H516        H  0.41451331  0.59101356  0.05749653     0.36500
C517        C  0.25463733  0.32344827  0.08956722    -0.27700
C518        C  0.24591224  0.32454148  0.05518384     0.01900
C519        C  0.22752842  0.30338157  0.04024547     0.30000
C520        C  0.21979342  0.28163413  0.05784298    -0.19500
C521        C  0.22952948  0.28034004  0.09112323    -0.28900
C522        C  0.24627524  0.30165162  0.10776721     0.44000
C523        C  0.25726096  0.34729665  0.03412746     0.05200
O524        O  0.21743477  0.30359230  0.00786413    -0.57400
H525        H  0.20650995  0.26551617  0.04478593     0.18100
O526        O  0.25603759  0.30124076  0.14033581    -0.64200
H527        H  0.26883360  0.33936901  0.10171720     0.16600
C528        C  0.26293561  0.36917426  0.05033048     0.28800
C529        C  0.27653276  0.39051846  0.03161782    -0.25100
C530        C  0.28397403  0.38710498  0.49008997    -0.24300
C531        C  0.28059364  0.36595633  0.47401656     0.40300
C532        C  0.26392178  0.34743159  0.99791288    -0.26800
O533        O  0.25585069  0.37000343  0.08483636    -0.58700
H534        H  0.28149624  0.40711322  0.04536695     0.15900
O535        O  0.29110334  0.36651853  0.44170524    -0.60100
H536        H  0.25994212  0.33093451  0.98474355     0.14400
H537        H  0.24618891  0.30372384  0.15845605     0.46200
H538        H  0.23976968  0.36829268  0.08242033     0.41600
H539        H  0.27876485  0.36345957  0.42333829     0.45000
H540        H  0.20505301  0.30791619  0.01373179     0.36500
C541        C  0.52079277  0.38681719  0.44943962    -0.27700
C542        C  0.53650889  0.40962179  0.43565126     0.01900
C543        C  0.53762691  0.41321644  0.39826489     0.30000
C544        C  0.52421814  0.39418260  0.37528837    -0.19500
C545        C  0.50920183  0.37112201  0.38860091    -0.28900
C546        C  0.50681557  0.36768235  0.42615904     0.44000
C547        C  0.55436195  0.42882606  0.45900382     0.05200
O548        O  0.55342439  0.43488056  0.38369181    -0.57400
H549        H  0.52610689  0.39749777  0.34655940     0.18100
O550        O  0.49216252  0.34556288  0.44029019    -0.64200
H551        H  0.51987126  0.38373140  0.47819144     0.16600
C552        C  0.55681886  0.45176632  0.45940986     0.28800
C553        C  0.57752616  0.47108525  0.47351702    -0.25100
C554        C  0.59599317  0.46788196  0.48764937    -0.24300
C555        C  0.59234740  0.44444897  0.49021709     0.40300
C556        C  0.57178162  0.42528013  0.47584914    -0.26800
O557        O  0.53965519  0.45568426  0.44430906    -0.58700
H558        H  0.57951528  0.48872185  0.47201616     0.15900
O559        O  0.61819682  0.44323619  0.97797469    -0.60100
H560        H  0.57014196  0.40775679  0.47592703     0.14400
H561        H  0.47709606  0.34545447  0.44608887     0.46200
H562        H  0.52820970  0.45288655  0.46400763     0.41600
H563        H  0.61704398  0.43683996  0.00260436     0.45000
H564        H  0.54354017  0.44177154  0.37518471     0.36500
C565        C  0.60488491  0.47529790  0.18895224    -0.27700
C566        C  0.58711050  0.45264739  0.17766345     0.01900
C567        C  0.58743872  0.44556588  0.14212185     0.30000
C568        C  0.60518052  0.46082710  0.11836802    -0.19500
C569        C  0.62326867  0.48358159  0.12915478    -0.28900
C570        C  0.62280596  0.49082910  0.16491099     0.44000
C571        C  0.56879199  0.43545821  0.20280843     0.05200
O572        O  0.57032957  0.42359820  0.13025719    -0.57400
H573        H  0.60464000  0.45458399  0.09115960     0.18100
O574        O  0.63984990  0.51277031  0.17684078    -0.64200
H575        H  0.60492349  0.48088078  0.21643368     0.16600
C576        C  0.57278335  0.41865097  0.22094429     0.28800
C577        C  0.55390332  0.39915014  0.23810624    -0.25100
C578        C  0.53064793  0.39592337  0.23775850    -0.24300
C579        C  0.52698224  0.41360124  0.22125641     0.40300
C580        C  0.54595570  0.43307816  0.20381535    -0.26800
O581        O  0.59478247  0.42026051  0.21993339    -0.58700
H582        H  0.55740199  0.38607441  0.25077726     0.15900
O583        O  0.50481202  0.41160597  0.22068740    -0.60100
H584        H  0.54257896  0.44576714  0.18959942     0.14400
H585        H  0.63275802  0.52322468  0.17367877     0.46200
H586        H  0.60374985  0.43086891  0.24023493     0.41600
H587        H  0.49740184  0.40317832  0.19793858     0.45000
H588        H  0.57681469  0.41280846  0.13536895     0.36500
C589        C  0.36647987  0.25932229  0.20315122    -0.27700
C590        C  0.34641186  0.25838275  0.21929273     0.01900
C591        C  0.34860490  0.26753706  0.25449189     0.30000
C592        C  0.37082907  0.27850463  0.27203749    -0.19500
C593        C  0.39125672  0.28083898  0.25482097    -0.28900
C594        C  0.38868977  0.27048228  0.22041080     0.44000
C595        C  0.32349187  0.24838812  0.19894494     0.05200
O596        O  0.32935869  0.26679675  0.27140671    -0.57400
H597        H  0.37232439  0.28643434  0.29825915     0.18100
O598        O  0.40790316  0.27130654  0.20323510    -0.64200
H599        H  0.36505888  0.25176234  0.17665068     0.16600
C600        C  0.32218031  0.25719232  0.16466381     0.28800
C601        C  0.30002633  0.24877458  0.14737477    -0.25100
C602        C  0.27891826  0.23151445  0.16375930    -0.24300
C603        C  0.28050423  0.22184820  0.19718079     0.40300
C604        C  0.30256378  0.23023559  0.21430692    -0.26800
O605        O  0.34223187  0.27516329  0.14894583    -0.58700
H606        H  0.29925922  0.25659102  0.12196231     0.15900
O607        O  0.26051891  0.20397275  0.21327939    -0.60100
H608        H  0.30325911  0.22273037  0.24006054     0.14400
H609        H  0.41207277  0.28324884  0.18378974     0.46200
H610        H  0.34665749  0.26737106  0.12980038     0.41600
H611        H  0.25648290  0.21176389  0.23292714     0.45000
H612        H  0.32918675  0.28136068  0.26337904     0.36500
C613        C  0.43247690  0.39660880  0.37926143    -0.27700
C614        C  0.41259927  0.39660181  0.36405345     0.01900
C615        C  0.40394192  0.38513969  0.33060763     0.30000
C616        C  0.41470727  0.37334879  0.31355178    -0.19500
C617        C  0.43403738  0.37257586  0.32959109    -0.28900
C618        C  0.44318641  0.38486732  0.36239145     0.44000
C619        C  0.40115588  0.40867127  0.38328786     0.05200
O620        O  0.38444070  0.38464338  0.31498604    -0.57400
H621        H  0.40717944  0.36381276  0.28870966     0.18100
O622        O  0.46235381  0.38506078  0.37875208    -0.64200
H623        H  0.43967688  0.40567940  0.40453605     0.16600
C624        C  0.39157287  0.40169960  0.41822455     0.28800
C625        C  0.38012227  0.41284369  0.43521627    -0.25100
C626        C  0.37815770  0.43115520  0.41792554    -0.24300
C627        C  0.38885782  0.43883270  0.38364782     0.40300
C628        C  0.39997884  0.42751999  0.36663562    -0.26800
O629        O  0.39199639  0.38300479  0.43502533    -0.58700
H630        H  0.37180878  0.40638171  0.46119809     0.15900
O631        O  0.38803611  0.45708133  0.36601265    -0.60100
H632        H  0.40766307  0.43346226  0.34015059     0.14400
H633        H  0.47657557  0.39808186  0.36684081     0.46200
H634        H  0.40523571  0.39038881  0.45262127     0.41600
H635        H  0.40337990  0.47150843  0.37171391     0.45000
H636        H  0.37048300  0.37058846  0.32557716     0.36500
C637        C  0.59243714  0.98709297  0.42141809    -0.27700
C638        C  0.58850395  0.98894617  0.38453153     0.01900
C639        C  0.57318695  0.96806262  0.36562058     0.30000
C640        C  0.56292426  0.94589167  0.38287959    -0.19500
C641        C  0.56749996  0.94372404  0.41941278    -0.28900
C642        C  0.58218151  0.96476121  0.43880904     0.44000
C643        C  0.60070972  0.01247971  0.36557090     0.05200
O644        O  0.56830221  0.96908033  0.32995846    -0.57400
H645        H  0.55156821  0.93017958  0.36720175     0.18100
O646        O  0.58734030  0.96372361  0.47432870    -0.64200
H647        H  0.60414695  0.00295069  0.43652820     0.16600
C648        C  0.59761306  0.03157889  0.37682862     0.28800
C649        C  0.60947475  0.05357633  0.35891297    -0.25100
C650        C  0.62479502  0.05723434  0.32966962    -0.24300
C651        C  0.62753793  0.03799986  0.31788063     0.40300
C652        C  0.61554335  0.01588639  0.33571148    -0.26800
O653        O  0.58260018  0.02875931  0.40484545    -0.58700
H654        H  0.60697813  0.06804793  0.36833921     0.15900
O655        O  0.64321060  0.04107774  0.29076566    -0.60100
H656        H  0.61833504  0.00148582  0.32677926     0.14400
H657        H  0.60190623  0.96219762  0.47413708     0.46200
H658        H  0.59315746  0.03642152  0.42580014     0.41600
H659        H  0.63365866  0.03705922  0.26836291     0.45000
H660        H  0.55468922  0.97217020  0.32981844     0.36500
C661        C  0.54590874  0.79457986  0.06613765    -0.27700
C662        C  0.53506214  0.79012860  0.10004138     0.01900
C663        C  0.52344523  0.80277059  0.11076321     0.30000
C664        C  0.52198195  0.81889901  0.08688404    -0.19500
C665        C  0.53153349  0.82205632  0.05213492    -0.28900
C666        C  0.54416966  0.81030109  0.04226348     0.44000
C667        C  0.53453224  0.77077616  0.12212866     0.05200
O668        O  0.51358990  0.79946750  0.14444504    -0.57400
H669        H  0.51236645  0.82796585  0.09484516     0.18100
O670        O  0.55417143  0.81342350  0.00871041    -0.64200
H671        H  0.55490302  0.78501642  0.05750811     0.16600
C672        C  0.51273917  0.75043544  0.13054462     0.28800
C673        C  0.51254374  0.73072495  0.14643842    -0.25100
C674        C  0.53389845  0.73059040  0.15364114    -0.24300
C675        C  0.55576249  0.75132047  0.14624830     0.40300
C676        C  0.55591599  0.77109291  0.13044133    -0.26800
O677        O  0.49148539  0.74910320  0.12157567    -0.58700
H678        H  0.49548172  0.71514767  0.15192643     0.15900
O679        O  0.57708880  0.75219254  0.15289332    -0.60100
H680        H  0.57282068  0.78653116  0.12368514     0.14400
H681        H  0.56228030  0.81975929  0.50667980     0.46200
H682        H  0.48829540  0.74316383  0.09645991     0.41600
H683        H  0.58155195  0.75866176  0.17762176     0.45000
H684        H  0.49611258  0.79153208  0.14058666     0.36500
C685        C  0.54030424  0.74696129  0.31781862    -0.27700
C686        C  0.53283592  0.74092251  0.35353201     0.01900
C687        C  0.52307198  0.71697562  0.36454320     0.30000
C688        C  0.52094516  0.69956619  0.33973283    -0.19500
C689        C  0.52803169  0.70576221  0.30377624    -0.28900
C690        C  0.53797688  0.72974870  0.29313031     0.44000
C691        C  0.53404510  0.75989159  0.37746791     0.05200
O692        O  0.51516743  0.71035514  0.39912952    -0.57400
H693        H  0.51304153  0.68117567  0.34823726     0.18100
O694        O  0.54585370  0.73665349  0.25854499    -0.64200
H695        H  0.54738101  0.76512182  0.30859227     0.16600
C696        C  0.55525687  0.78190902  0.38036309     0.28800
C697        C  0.55492245  0.80152242  0.39585495    -0.25100
C698        C  0.53354063  0.79966632  0.40836977    -0.24300
C699        C  0.51269900  0.77705026  0.40815173     0.40300
C700        C  0.51310072  0.75744568  0.39277290    -0.26800
O701        O  0.57634333  0.78442116  0.36758404    -0.58700
H702        H  0.57128332  0.81846040  0.39659906     0.15900
O703        O  0.49173765  0.77390535  0.42249627    -0.60100
H704        H  0.49664681  0.74063585  0.39095298     0.14400
H705        H  0.53313267  0.73849670  0.24648915     0.46200
H706        H  0.58031536  0.79478837  0.34606844     0.41600
H707        H  0.48219526  0.77400627  0.40163762     0.45000
H708        H  0.52952618  0.71357240  0.41314409     0.36500
C709        C  0.78777967  0.91618764  0.02299914    -0.27700
C710        C  0.79757859  0.92210417  0.98842166     0.01900
C711        C  0.79981191  0.94401948  0.47384461     0.30000
C712        C  0.80956037  0.96367101  0.00034342    -0.19500
C713        C  0.80107469  0.95785933  0.03577105    -0.28900
C714        C  0.78950046  0.93378433  0.04659755     0.44000
C715        C  0.79475325  0.90299211  0.46444980     0.05200
O716        O  0.80220759  0.94830212  0.43753147    -0.57400
H717        H  0.80706463  0.97949348  0.48700015     0.18100
O718        O  0.78039289  0.92732810  0.08069428    -0.64200
H719        H  0.77961163  0.89792333  0.03225977     0.16600
C720        C  0.81649555  0.90490167  0.45364799     0.28800
C721        C  0.81690951  0.88540670  0.43805660    -0.25100
C722        C  0.79580253  0.86355044  0.43338110    -0.24300
C723        C  0.77387678  0.86199466  0.44306370     0.40300
C724        C  0.77352909  0.88161175  0.45859968    -0.26800
O725        O  0.84105215  0.92183714  0.97580725    -0.58700
H726        H  0.83398931  0.88724976  0.43070751     0.15900
O727        O  0.75273521  0.84130115  0.43833616    -0.60100
H728        H  0.75671457  0.87986446  0.46734480     0.14400
H729        H  0.76416215  0.92536961  0.07943172     0.46200
H730        H  0.84159293  0.91794860  0.00149137     0.41600
H731        H  0.74945449  0.83287403  0.46174606     0.45000
H732        H  0.81951693  0.95554450  0.43267875     0.36500
C733        C  0.81260207  0.91090091  0.20014910    -0.27700
C734        C  0.79189722  0.89463178  0.21846818     0.01900
C735        C  0.77235347  0.89874784  0.21954593     0.30000
C736        C  0.77408552  0.91928044  0.20381009    -0.19500
C737        C  0.79523931  0.93616342  0.18695161    -0.28900
C738        C  0.81442052  0.93149784  0.18459347     0.44000
C739        C  0.79223093  0.87552848  0.24047081     0.05200
O740        O  0.75172661  0.88318829  0.23697254    -0.57400
H741        H  0.75904351  0.92232402  0.20580034     0.18100
O742        O  0.83507081  0.94691221  0.16707510    -0.64200
H743        H  0.82792253  0.90825618  0.19934769     0.16600
C744        C  0.79935161  0.85970025  0.22630888     0.28800
C745        C  0.80263265  0.84420224  0.24936749    -0.25100
C746        C  0.79932273  0.84467197  0.28663053    -0.24300
C747        C  0.79085926  0.85957517  0.30024117     0.40300
C748        C  0.78746093  0.87474573  0.27732644    -0.26800
O749        O  0.80293464  0.85916576  0.19002266    -0.58700
H750        H  0.80868207  0.83258643  0.23831664     0.15900
O751        O  0.78562901  0.85931234  0.33611091    -0.60100
H752        H  0.78197933  0.88670740  0.28881520     0.14400
H753        H  0.84625768  0.95678172  0.18628763     0.46200
H754        H  0.82043896  0.86673445  0.18692691     0.41600
H755        H  0.79918145  0.87385630  0.34640781     0.45000
H756        H  0.74224625  0.87079970  0.21892099     0.36500
C757        C  0.74255678  0.06634953  0.16663729    -0.27700
C758        C  0.75424786  0.07905338  0.19793288     0.01900
C759        C  0.77497374  0.07891969  0.20930080     0.30000
C760        C  0.78288829  0.06522488  0.19081267    -0.19500
C761        C  0.77057912  0.05161869  0.16051623    -0.28900
C762        C  0.75066268  0.05283167  0.14783694     0.44000
C763        C  0.74396849  0.09139150  0.21919931     0.05200
O764        O  0.78723455  0.09155576  0.23907019    -0.57400
H765        H  0.79830116  0.06455151  0.20098213     0.18100
O766        O  0.73773957  0.03922011  0.11920058    -0.64200
H767        H  0.72643967  0.06605021  0.15763486     0.16600
C768        C  0.73896221  0.10799196  0.20268691     0.28800
C769        C  0.72645912  0.11711554  0.22149277    -0.25100
C770        C  0.71824175  0.10970156  0.25687566    -0.24300
C771        C  0.72487633  0.09449224  0.27443836     0.40300
C772        C  0.73756690  0.08539122  0.25554012    -0.26800
O773        O  0.74618817  0.11535424  0.16802805    -0.58700
H774        H  0.72229456  0.12936228  0.20757097     0.15900
O775        O  0.71763986  0.08703593  0.30900814    -0.60100
H776        H  0.74141092  0.07271616  0.26877959     0.14400
H777        H  0.74427143  0.04976055  0.09793053     0.46200
H778        H  0.73151192  0.10740928  0.15322276     0.41600
H779        H  0.73042333  0.09908954  0.32446354     0.45000
H780        H  0.79868290  0.10764599  0.22994091     0.36500
C781        C  0.65341748  0.92523121  0.00199125    -0.27700
C782        C  0.65480472  0.91489603  0.03463012     0.01900
C783        C  0.63454869  0.89427285  0.04698045     0.30000
C784        C  0.61312674  0.88496314  0.02774203    -0.19500
C785        C  0.61121948  0.89508962  0.49590381    -0.28900
C786        C  0.63202808  0.91419511  0.48140279     0.44000
C787        C  0.67734310  0.92621520  0.05574018     0.05200
O788        O  0.63534574  0.88341672  0.07826083    -0.57400
H789        H  0.59745230  0.86966136  0.03854366     0.18100
O790        O  0.63103458  0.92519909  0.45041249    -0.64200
H791        H  0.66924384  0.93892869  0.48978767     0.16600
C792        C  0.69872180  0.93006690  0.03994415     0.28800
C793        C  0.72030453  0.94332807  0.05812731    -0.25100
C794        C  0.72124738  0.95331876  0.09219592    -0.24300
C795        C  0.69966274  0.94800515  0.10923395     0.40300
C796        C  0.67790206  0.93461351  0.09091283    -0.26800
O797        O  0.69815525  0.91719822  0.50810810    -0.58700
H798        H  0.73656654  0.94652488  0.04479466     0.15900
O799        O  0.69969237  0.95718895  0.14247618    -0.60100
H800        H  0.66153884  0.93168053  0.10355015     0.14400
H801        H  0.63583038  0.91791458  0.43097805     0.46200
H802        H  0.70459511  0.93043888  0.49045308     0.41600
H803        H  0.69897617  0.94520054  0.15987768     0.45000
H804        H  0.64085058  0.87215083  0.07099394     0.36500
C805        C  0.56303959  0.10869568  0.20282889    -0.27700
C806        C  0.55906316  0.12813599  0.20614761     0.01900
C807        C  0.57429481  0.14731092  0.22832456     0.30000
C808        C  0.59405759  0.14769429  0.24462408    -0.19500
C809        C  0.59914463  0.12909897  0.23939156    -0.28900
C810        C  0.58290292  0.10905505  0.21923628     0.44000
C811        C  0.54074863  0.12967961  0.18363193     0.05200
O812        O  0.56990207  0.16578184  0.23419361    -0.57400
H813        H  0.60577944  0.16297414  0.26083621     0.18100
O814        O  0.58669370  0.09015164  0.21421088    -0.64200
H815        H  0.55137696  0.09371290  0.18606659     0.16600
C816        C  0.54777276  0.14835622  0.15868202     0.28800
C817        C  0.53076789  0.15044088  0.13810026    -0.25100
C818        C  0.50634768  0.13369429  0.14079056    -0.24300
C819        C  0.49931424  0.11446545  0.16508209     0.40300
C820        C  0.51645889  0.11268995  0.18641256    -0.26800
O821        O  0.57142382  0.16448888  0.15356896    -0.58700
H822        H  0.53697694  0.16499042  0.11904873     0.15900
O823        O  0.47583667  0.09732022  0.16826528    -0.60100
H824        H  0.51077767  0.09802260  0.20514476     0.14400
H825        H  0.59572347  0.09355940  0.19133558     0.46200
H826        H  0.57722903  0.15681026  0.13626240     0.41600
H827        H  0.47399844  0.08405563  0.15270189     0.45000
H828        H  0.58299451  0.17977095  0.22194285     0.36500
C829        C  0.59986681  0.11695735  0.43971509    -0.27700
C830        C  0.59166868  0.13341678  0.44202448     0.01900
C831        C  0.60275996  0.15432133  0.42124733     0.30000
C832        C  0.62100232  0.15806183  0.39733668    -0.19500
C833        C  0.62881255  0.14135171  0.39410357    -0.28900
C834        C  0.61862532  0.12102033  0.41632411     0.44000
C835        C  0.57033274  0.12819437  0.46358076     0.05200
O836        O  0.59522815  0.17079025  0.42314149    -0.57400
H837        H  0.62864186  0.17379491  0.38046090     0.18100
O838        O  0.62559802  0.10419114  0.41341775    -0.64200
H839        H  0.59134717  0.10072565  0.45542649     0.16600
C840        C  0.54744500  0.11199440  0.45085069     0.28800
C841        C  0.52730314  0.11088948  0.46701691    -0.25100
C842        C  0.52952911  0.12571493  0.49624121    -0.24300
C843        C  0.55251957  0.14067013  0.51059603     0.40300
C844        C  0.57264311  0.14189244  0.49408504    -0.26800
O845        O  0.54468210  0.09854277  0.42082601    -0.58700
H846        H  0.50996062  0.09909427  0.45555847     0.15900
O847        O  0.55569846  0.15478009  0.53997215    -0.60100
H848        H  0.59021096  0.15435892  0.50418527     0.14400
H849        H  0.63863795  0.10894462  0.43118617     0.46200
H850        H  0.54364070  0.08364863  0.43000223     0.41600
H851        H  0.56003331  0.17065529  0.53002694     0.45000
H852        H  0.58202503  0.16537882  0.40550435     0.36500
C853        C  0.48799721  0.19831747  0.39449684    -0.27700
C854        C  0.46759690  0.20094370  0.39405300     0.01900
C855        C  0.44707392  0.18403078  0.41262949     0.30000
C856        C  0.44771337  0.16600349  0.43289079    -0.19500
C857        C  0.46883966  0.16489342  0.43598872    -0.28900
C858        C  0.48888419  0.18083675  0.41580762     0.44000
C859        C  0.46863440  0.22247700  0.37715243     0.05200
O860        O  0.42676316  0.18583484  0.41313950    -0.57400
H861        H  0.43487050  0.15962351  0.96255511     0.18100
O862        O  0.50953245  0.17965373  0.41715055    -0.64200
H863        H  0.50371008  0.21053398  0.37947910     0.16600
C864        C  0.48742533  0.24546920  0.38535849     0.28800
C865        C  0.48748628  0.26564823  0.37135533    -0.25100
C866        C  0.46892590  0.26360742  0.34921969    -0.24300
C867        C  0.45037300  0.24065283  0.34029481     0.40300
C868        C  0.45035352  0.22037441  0.35414886    -0.26800
O869        O  0.50510673  0.24849626  0.40887991    -0.58700
H870        H  0.50189937  0.28306496  0.37871579     0.15900
O871        O  0.43224026  0.23778126  0.31791398    -0.60100
H872        H  0.43595153  0.20292918  0.34693190     0.14400
H873        H  0.52012697  0.19247082  0.43392118     0.46200
H874        H  0.51953246  0.25362388  0.39384906     0.41600
H875        H  0.43819778  0.23805328  0.29321757     0.45000
H876        H  0.42863863  0.19615107  0.43403972     0.36500
C877        C  0.49281500  0.26471194  0.17388694    -0.27700
C878        C  0.47497688  0.25686485  0.14757481     0.01900
C879        C  0.46068041  0.26770281  0.14520805     0.30000
C880        C  0.46392870  0.28566047  0.16967632    -0.19500
C881        C  0.48092602  0.29258631  0.19735873    -0.28900
C882        C  0.49572683  0.28218954  0.19879324     0.44000
C883        C  0.47073494  0.23634978  0.12455299     0.05200
O884        O  0.44311168  0.26044454  0.11969785    -0.57400
H885        H  0.45249363  0.29347771  0.16790298     0.18100
O886        O  0.51322689  0.28907013  0.22439963    -0.64200
H887        H  0.50400004  0.25659538  0.17599772     0.16600
C888        C  0.48849136  0.23773360  0.10107140     0.28800
C889        C  0.48552534  0.21726926  0.08335917    -0.25100
C890        C  0.46525860  0.19499056  0.08957004    -0.24300
C891        C  0.44707318  0.19383947  0.11207856     0.40300
C892        C  0.44985011  0.21442174  0.12915170    -0.26800
O893        O  0.50896191  0.25899462  0.09568939    -0.58700
H894        H  0.49975786  0.21865060  0.06626831     0.15900
O895        O  0.42685440  0.17256666  0.11860241    -0.60100
H896        H  0.43611278  0.21305109  0.14736497     0.14400
H897        H  0.50661541  0.27639372  0.24296967     0.46200
H898        H  0.52112897  0.25834362  0.11123186     0.41600
H899        H  0.41607876  0.17037178  0.09816335     0.45000
H900        H  0.45108662  0.27006168  0.09803467     0.36500
C901        C  0.30559128  0.07735801  0.44696796    -0.27700
C902        C  0.32421042  0.07336536  0.43660170     0.01900
C903        C  0.32071635  0.05824442  0.40703946     0.30000
C904        C  0.29838120  0.04613335  0.39004033    -0.19500
C905        C  0.27918769  0.04862321  0.40246975    -0.28900
C906        C  0.28317225  0.06494532  0.43047760     0.44000
C907        C  0.34573646  0.08219766  0.45985285     0.05200
O908        O  0.33865334  0.05416386  0.39590182    -0.57400
H909        H  0.29564219  0.03353460  0.36883105     0.18100
O910        O  0.26498507  0.06836188  0.44260111    -0.64200
H911        H  0.30792998  0.08891194  0.46954668     0.16600
C912        C  0.35958080  0.10754937  0.97389096     0.28800
C913        C  0.37933521  0.11365002  0.99652511    -0.25100
C914        C  0.38580326  0.09655636  0.00623393    -0.24300
C915        C  0.37054802  0.07276548  0.49833056     0.40300
C916        C  0.35066911  0.06551953  0.47609602    -0.26800
O917        O  0.35415006  0.12478284  0.96405689    -0.58700
H918        H  0.39018662  0.13193961  0.00514426     0.15900
O919        O  0.37469844  0.05579876  0.51362926    -0.60100
H920        H  0.33902666  0.04667851  0.47142168     0.14400
H921        H  0.25957974  0.05928619  0.46544137     0.46200
H922        H  0.36261707  0.13121035  0.94096718     0.41600
H923        H  0.38153050  0.05053473  0.49412824     0.45000
H924        H  0.34702855  0.06600111  0.37661894     0.36500
C925        C  0.21254848  0.06683403  0.02212358    -0.27700
C926        C  0.19733648  0.07478410  0.52075442     0.01900
C927        C  0.18282387  0.06984148  0.49021265     0.30000
C928        C  0.18084397  0.05272308  0.46553162    -0.19500
C929        C  0.19291985  0.03982926  0.47074404    -0.28900
C930        C  0.20670078  0.04402752  0.50224730     0.44000
C931        C  0.20287858  0.09873881  0.03969156     0.05200
O932        O  0.17144923  0.08262587  0.48329526    -0.57400
H933        H  0.16998334  0.04981693  0.44180556     0.18100
O934        O  0.22348674  0.03794200  0.00370903    -0.64200
H935        H  0.22656279  0.07343509  0.04215104     0.16600
C936        C  0.18732722  0.09685324  0.06758412     0.28800
C937        C  0.18843504  0.11739777  0.08200583    -0.25100
C938        C  0.20531013  0.14009196  0.06948616    -0.24300
C939        C  0.22212101  0.14202871  0.04358028     0.40300
C940        C  0.22064214  0.12139419  0.02855874    -0.26800
O941        O  0.17014250  0.07495596  0.07952396    -0.58700
H942        H  0.17564580  0.11557770  0.10241882     0.15900
O943        O  0.23867873  0.16385614  0.03050085    -0.60100
H944        H  0.23675431  0.11799044  0.52859924     0.14400
H945        H  0.20763934  0.01780068  0.52305984     0.46200
H946        H  0.17816004  0.07026655  0.09797950     0.41600
H947        H  0.25313189  0.16864676  0.04530035     0.45000
H948        H  0.15476793  0.07229377  0.49133023     0.36500
C949        C  0.18290099  0.08785680  0.29638208    -0.27700
C950        C  0.20468810  0.10644697  0.28436374     0.01900
C951        C  0.22556440  0.10500861  0.28931832     0.30000
C952        C  0.22431678  0.08470678  0.30520979    -0.19500
C953        C  0.20226939  0.06541558  0.31570119    -0.28900
C954        C  0.18147788  0.06742556  0.31166562     0.44000
C955        C  0.20456031  0.12512686  0.26158862     0.05200
O956        O  0.24719161  0.12330247  0.27839288    -0.57400
H957        H  0.24055832  0.08382460  0.30835038     0.18100
O958        O  0.15951229  0.04940006  0.32193434    -0.64200
H959        H  0.16668286  0.08867025  0.29223204     0.16600
C960        C  0.20758625  0.12448394  0.22431400     0.28800
C961        C  0.20455802  0.14003203  0.20185338    -0.25100
C962        C  0.19808822  0.15631358  0.21572556    -0.24300
C963        C  0.19565712  0.15747041  0.25324093     0.40300
C964        C  0.19872818  0.14174551  0.27595362    -0.26800
O965        O  0.21257703  0.10800189  0.20940033    -0.58700
H966        H  0.20678993  0.13891338  0.17314145     0.15900
O967        O  0.18952855  0.17320025  0.26782896    -0.60100
H968        H  0.19602028  0.14211431  0.30465555     0.14400
H969        H  0.15237512  0.03997493  0.29979333     0.46200
H970        H  0.19684640  0.09419094  0.20330872     0.41600
H971        H  0.17186675  0.16466935  0.26797756     0.45000
H972        H  0.25065129  0.11799710  0.25524569     0.36500
C973        C  0.42916120  0.84882247  0.03495448    -0.27700
C974        C  0.43205910  0.87064612  0.04700556     0.01900
C975        C  0.45432039  0.89136603  0.04241055     0.30000
C976        C  0.47335832  0.88993589  0.02680823    -0.19500
C977        C  0.47069272  0.86794953  0.01574115    -0.28900
C978        C  0.44815622  0.84729616  0.01963070     0.44000
C979        C  0.41259024  0.87089056  0.06798799     0.05200
O980        O  0.45781029  0.91302975  0.05385909    -0.57400
H981        H  0.49040131  0.90604500  0.02413750     0.18100
O982        O  0.44348008  0.82802395  0.49574807    -0.64200
H983        H  0.41231247  0.83263768  0.03879103     0.16600
C984        C  0.38883750  0.85958134  0.05538592     0.28800
C985        C  0.37026405  0.85649026  0.07843669    -0.25100
C986        C  0.37514588  0.86440750  0.11414406    -0.24300
C987        C  0.39901171  0.87703553  0.12591738     0.40300
C988        C  0.41745781  0.88024015  0.10291579    -0.26800
O989        O  0.38351048  0.85063698  0.02111347    -0.58700
H990        H  0.35201218  0.84680202  0.06903687     0.15900
O991        O  0.40442885  0.88607534  0.16019738    -0.60100
H992        H  0.43552578  0.88892986  0.11317686     0.14400
H993        H  0.44287106  0.81801764  0.51642725     0.46200
H994        H  0.38613153  0.86428699  0.00579304     0.41600
H995        H  0.40765754  0.87479567  0.17394837     0.45000
H996        H  0.45412302  0.92000036  0.03269496     0.36500
C997        C  0.46064511  0.87489481  0.35043475    -0.27700
C998        C  0.45713961  0.86465389  0.31622549     0.01900
C999        C  0.47047657  0.85369303  0.30586871     0.30000
C1000       C  0.48652679  0.85245922  0.33028164    -0.19500
C1001       C  0.48884972  0.86149409  0.36528100    -0.28900
C1002       C  0.47620986  0.87332337  0.37486635     0.44000
C1003       C  0.43785405  0.86389032  0.29359325     0.05200
O1004       O  0.46790289  0.84420742  0.27206933    -0.57400
H1005       H  0.49622155  0.84344567  0.32247284     0.18100
O1006       O  0.47839226  0.88281317  0.40860128    -0.64200
H1007       H  0.45047726  0.88331637  0.35880443     0.16600
C1008       C  0.41717928  0.84209914  0.28658932     0.28800
C1009       C  0.39722923  0.84181749  0.27125509    -0.25100
C1010       C  0.39723352  0.86311677  0.26310103    -0.24300
C1011       C  0.41836852  0.88494144  0.26877132     0.40300
C1012       C  0.43838957  0.88516971  0.28398207    -0.26800
O1013       O  0.41581050  0.82098380  0.29640707    -0.58700
H1014       H  0.38137014  0.82477327  0.26701510     0.15900
O1015       O  0.41967445  0.90615815  0.25984943    -0.60100
H1016       H  0.45416441  0.90208044  0.28943759     0.14400
H1017       H  0.49254487  0.89893685  0.40726174     0.46200
H1018       H  0.41057683  0.81851211  0.32189562     0.41600
H1019       H  0.41629041  0.91206726  0.28248294     0.45000
H1020       H  0.45918970  0.82670914  0.27551504     0.36500
C1021       C  0.25911463  0.89407985  0.29384833    -0.27700
C1022       C  0.26191901  0.91594769  0.28217365     0.01900
C1023       C  0.27570104  0.92669393  0.25121834     0.30000
C1024       C  0.28724302  0.91604623  0.23323082    -0.19500
C1025       C  0.28542039  0.89472983  0.24596685    -0.28900
C1026       C  0.27076407  0.88351922  0.27612290     0.44000
C1027       C  0.25115672  0.92789576  0.30312411     0.05200
O1028       O  0.27886543  0.94816518  0.23935003    -0.57400
H1029       H  0.29867717  0.92513830  0.21052275     0.18100
O1030       O  0.26838455  0.86260822  0.28929827    -0.64200
H1031       H  0.24841232  0.88552051  0.31743074     0.16600
C1032       C  0.22760477  0.92275994  0.29672601     0.28800
C1033       C  0.21844445  0.93565020  0.31464926    -0.25100
C1034       C  0.23237342  0.95356685  0.33957715    -0.24300
C1035       C  0.25556914  0.95789666  0.34722641     0.40300
C1036       C  0.26485668  0.94523416  0.32884655    -0.26800
O1037       O  0.21358032  0.90551190  0.27245853    -0.58700
H1038       H  0.20058639  0.93209474  0.30833365     0.15900
O1039       O  0.26998838  0.97579930  0.37031828    -0.60100
H1040       H  0.28303867  0.94938668  0.33398501     0.14400
H1041       H  0.25613308  0.84995237  0.27390812     0.46200
H1042       H  0.21672615  0.91382255  0.24897142     0.41600
H1043       H  0.26703238  0.96818006  0.39434436     0.45000
H1044       H  0.26641352  0.94414620  0.22079114     0.36500
C1045       C  0.41053431  0.98222803  0.18260671    -0.27700
C1046       C  0.40909284  0.98653168  0.14573501     0.01900
C1047       C  0.39285688  0.96775033  0.12399666     0.30000
C1048       C  0.37844466  0.94534988  0.13877859    -0.19500
C1049       C  0.37925276  0.94083224  0.17572359    -0.28900
C1050       C  0.39579889  0.95953332  0.19765142     0.44000
C1051       C  0.42214316  0.01088004  0.13013288     0.05200
O1052       O  0.39011854  0.97133261  0.08831270    -0.57400
H1053       H  0.36596838  0.93157924  0.12094341     0.18100
O1054       O  0.39747990  0.95604645  0.23367941    -0.64200
H1055       H  0.42284546  0.99656730  0.19981243     0.16600
C1056       C  0.41788921  0.02881184  0.14328945     0.28800
C1057       C  0.42503824  0.04954467  0.12325298    -0.25100
C1058       C  0.43657735  0.05303531  0.08976182    -0.24300
C1059       C  0.44243496  0.03585571  0.07784675     0.40300
C1060       C  0.43529839  0.01501812  0.09808575    -0.26800
O1061       O  0.40476951  0.02532058  0.17399773    -0.58700
H1062       H  0.42071458  0.06263322  0.13360862     0.15900
O1063       O  0.45411534  0.03866146  0.04585978    -0.60100
H1064       H  0.43883468  0.00140020  0.08767625     0.14400
H1065       H  0.40884273  0.94992822  0.23538791     0.46200
H1066       H  0.41665556  0.03378381  0.19319296     0.41600
H1067       H  0.44135632  0.03056531  0.02767796     0.45000
H1068       H  0.37834091  0.97698459  0.08787183     0.36500
C1069       C  0.93886592  0.79701979  0.27617689    -0.27700
C1070       C  0.91754690  0.79451763  0.26183674     0.01900
C1071       C  0.91508013  0.79473314  0.22431531     0.30000
C1072       C  0.93378028  0.79797188  0.20178781    -0.19500
C1073       C  0.95538585  0.80092954  0.21574514    -0.28900
C1074       C  0.95764105  0.79997374  0.25341620     0.44000
C1075       C  0.89850609  0.79358884  0.28552742     0.05200
O1076       O  0.89491358  0.79323434  0.20942300    -0.57400
H1077       H  0.93132004  0.79840566  0.17300990     0.18100
O1078       O  0.97815299  0.80237038  0.26832002    -0.64200
H1079       H  0.94103891  0.79695749  0.30506852     0.16600
C1080       C  0.87521353  0.77395884  0.28491559     0.28800
C1081       C  0.85653073  0.77525816  0.30221220    -0.25100
C1082       C  0.86063224  0.79607111  0.32028425    -0.24300
C1083       C  0.88430895  0.81512235  0.32276289     0.40300
C1084       C  0.90292544  0.81376892  0.30545446    -0.26800
O1085       O  0.87035966  0.75376721  0.26622824    -0.58700
H1086       H  0.83864077  0.76026147  0.30025395     0.15900
O1087       O  0.88944706  0.83550217  0.34114635    -0.60100
H1088       H  0.92073603  0.82899529  0.30625161     0.14400
H1089       H  0.98836376  0.81966372  0.27270660     0.46200
H1090       H  0.87385279  0.74406698  0.28325766     0.41600
H1091       H  0.89109641  0.83202697  0.36663860     0.45000
H1092       H  0.88577994  0.77683328  0.19978430     0.36500
C1093       C  0.89405360  0.77696747  0.05356508    -0.27700
C1094       C  0.89575540  0.79742416  0.03752416     0.01900
C1095       C  0.91798640  0.81838265  0.03638290     0.30000
C1096       C  0.93813912  0.81868845  0.05082466    -0.19500
C1097       C  0.93673471  0.79812412  0.06612501    -0.28900
C1098       C  0.91431670  0.77716726  0.06778373     0.44000
C1099       C  0.87471918  0.79828798  0.51858874     0.05200
O1100       O  0.92037058  0.83847555  0.01998370    -0.57400
H1101       H  0.95508767  0.83499792  0.04911368     0.18100
O1102       O  0.91189495  0.75693420  0.08372761    -0.64200
H1103       H  0.87948821  0.76052086  0.53913349     0.16600
C1104       C  0.87089889  0.78914456  0.48339537     0.28800
C1105       C  0.85509182  0.79165123  0.46066553    -0.25100
C1106       C  0.84255029  0.80303559  0.47227158    -0.24300
C1107       C  0.84530092  0.81115818  0.50803317     0.40300
C1108       C  0.86606788  0.81133710  0.02804106    -0.26800
O1109       O  0.88401002  0.77942836  0.46996137    -0.58700
H1110       H  0.85317519  0.78524957  0.43323741     0.15900
O1111       O  0.84223956  0.82951617  0.01474292    -0.60100
H1112       H  0.87250660  0.82206233  0.05216688     0.14400
H1113       H  0.91215082  0.74696953  0.06363868     0.46200
H1114       H  0.87306768  0.76198195  0.47016862     0.41600
H1115       H  0.84372252  0.83939867  0.51446077     0.45000
H1116       H  0.92322472  0.83674845  0.99421701     0.36500
C1117       C  0.06340387  0.85875603  0.97670326    -0.27700
C1118       C  0.08526418  0.87565133  0.99199439     0.01900
C1119       C  0.08532318  0.87800125  0.52330338     0.30000
C1120       C  0.06869834  0.86071001  0.05123313    -0.19500
C1121       C  0.04647402  0.84441364  0.03629225    -0.28900
C1122       C  0.04421934  0.84290298  0.99852810     0.44000
C1123       C  0.10109142  0.89542343  0.46294136     0.05200
O1124       O  0.10632848  0.89475998  0.53859433    -0.57400
H1125       H  0.07112944  0.86202283  0.08016238     0.18100
O1126       O  0.02303679  0.82710818  0.98274289    -0.64200
H1127       H  0.06105042  0.85825515  0.94779933     0.16600
C1128       C  0.12421135  0.89828797  0.46309316     0.28800
C1129       C  0.14312362  0.91835584  0.44711886    -0.25100
C1130       C  0.13933853  0.93578446  0.43066029    -0.24300
C1131       C  0.11578523  0.93191913  0.42824503     0.40300
C1132       C  0.09696782  0.91193855  0.44444919    -0.26800
O1133       O  0.13334033  0.88313784  0.98555715    -0.58700
H1134       H  0.16091720  0.92069321  0.44883982     0.15900
O1135       O  0.11098331  0.94791348  0.41113884    -0.60100
H1136       H  0.07926923  0.90993476  0.44402263     0.14400
H1137       H  0.02428920  0.81263396  0.97822548     0.46200
H1138       H  0.12938051  0.87020883  0.96790465     0.41600
H1139       H  0.10783357  0.94255662  0.38574027     0.45000
H1140       H  0.11395630  0.88577982  0.54809448     0.36500
C1141       C  0.10052780  0.87987392  0.21900608    -0.27700
C1142       C  0.10211176  0.90220021  0.21467761     0.01900
C1143       C  0.08525679  0.90419809  0.19324246     0.30000
C1144       C  0.06636569  0.88387853  0.17806292    -0.19500
C1145       C  0.06378807  0.86124020  0.18407698    -0.28900
C1146       C  0.08149906  0.85940986  0.20385685     0.44000
C1147       C  0.11916518  0.92264739  0.23654072     0.05200
O1148       O  0.08701722  0.92599492  0.18742893    -0.57400
H1149       H  0.05333448  0.88583045  0.16220116     0.18100
O1150       O  0.07989298  0.83771490  0.20985097    -0.64200
H1151       H  0.11338784  0.87815241  0.23565551     0.16600
C1152       C  0.11056141  0.93098111  0.26450824     0.28800
C1153       C  0.12642727  0.94972034  0.28614551    -0.25100
C1154       C  0.15115904  0.96042405  0.28082527    -0.24300
C1155       C  0.15984468  0.95245364  0.25227074     0.40300
C1156       C  0.14381105  0.93354670  0.23038830    -0.26800
O1157       O  0.08659751  0.92046918  0.27149329    -0.58700
H1158       H  0.11929173  0.95548620  0.30791249     0.15900
O1159       O  0.18385624  0.96242164  0.24626257    -0.60100
H1160       H  0.15059304  0.92721546  0.20890118     0.14400
H1161       H  0.07092459  0.83188638  0.23272051     0.46200
H1162       H  0.08333120  0.90772301  0.28919152     0.41600
H1163       H  0.18877145  0.95228243  0.25969890     0.45000
H1164       H  0.07438239  0.92612706  0.20246134     0.36500
C1165       C  0.06770551  0.74402396  0.08907573    -0.27700
C1166       C  0.07593371  0.75165150  0.05374865     0.01900
C1167       C  0.07220572  0.76936976  0.03819938     0.30000
C1168       C  0.05924797  0.77805118  0.05672521    -0.19500
C1169       C  0.04959271  0.76939606  0.09110033    -0.28900
C1170       C  0.05472462  0.75287048  0.10783688     0.44000
C1171       C  0.08705490  0.74013621  0.03242808     0.05200
O1172       O  0.08046335  0.77776583  0.00428160    -0.57400
H1173       H  0.05595397  0.79108087  0.04337848     0.18100
O1174       O  0.04561981  0.74385842  0.14113943    -0.64200
H1175       H  0.07036317  0.73034349  0.10151702     0.16600
C1176       C  0.10667983  0.73865170  0.04574503     0.28800
C1177       C  0.11408733  0.72483255  0.52632482    -0.25100
C1178       C  0.10340702  0.71304293  0.49391166    -0.24300
C1179       C  0.08651354  0.71741922  0.97928485     0.40300
C1180       C  0.07746462  0.72987819  0.99872954    -0.26800
O1181       O  0.11735903  0.74956456  0.07745663    -0.58700
H1182       H  0.12862305  0.72315346  0.53786768     0.15900
O1183       O  0.07564136  0.70628009  0.94783352    -0.60100
H1184       H  0.06228323  0.73075450  0.98806973     0.14400
H1185       H  0.05830135  0.75409475  0.15835961     0.46200
H1186       H  0.11205279  0.73675234  0.59448484     0.41600
H1187       H  0.08123607  0.71571440  0.42902517     0.45000
H1188       H  0.09705209  0.79051116  0.50342927     0.36500
C1189       C  0.22971512  0.78108691  0.11759336    -0.27700
C1190       C  0.22755512  0.75856909  0.12326257     0.01900
C1191       C  0.24434200  0.75683255  0.14543108     0.30000
C1192       C  0.26381686  0.77737494  0.15910676    -0.19500
C1193       C  0.26685360  0.80005021  0.15175584    -0.28900
C1194       C  0.24914271  0.80174258  0.13176688     0.44000
C1195       C  0.21012629  0.73763134  0.10198712     0.05200
O1196       O  0.24237205  0.73511759  0.15273177    -0.57400
H1197       H  0.27687911  0.77555290  0.17509413     0.18100
O1198       O  0.25122566  0.82348672  0.12434438    -0.64200
H1199       H  0.21704939  0.78281235  0.10048850     0.16600
C1200       C  0.18548623  0.72988061  0.10165060     0.28800
C1201       C  0.17018944  0.71142897  0.07835452    -0.25100
C1202       C  0.17926543  0.70075669  0.05489455    -0.24300
C1203       C  0.20374405  0.70794392  0.05642793     0.40300
C1204       C  0.21881901  0.72602831  0.07988119    -0.26800
O1205       O  0.17630678  0.74061583  0.12320766    -0.58700
H1206       H  0.15149148  0.70634177  0.07728548     0.15900
O1207       O  0.21272036  0.69583668  0.53020408    -0.60100
H1208       H  0.23767707  0.73170494  0.07965013     0.14400
H1209       H  0.26060615  0.82885444  0.10176023     0.46200
H1210       H  0.17314035  0.73223012  0.14662711     0.41600
H1211       H  0.22027662  0.70740910  0.51030840     0.45000
H1212       H  0.23157360  0.72892271  0.17378847     0.36500
C1213       C  0.23728927  0.75380153  0.39181497    -0.27700
C1214       C  0.23319555  0.76894229  0.36965437     0.01900
C1215       C  0.20984134  0.76500700  0.36543188     0.30000
C1216       C  0.19077185  0.74537830  0.38186689    -0.19500
C1217       C  0.19461827  0.72918211  0.40204859    -0.28900
C1218       C  0.21820606  0.73390114  0.40774341     0.44000
C1219       C  0.25237834  0.78551714  0.34558165     0.05200
O1220       O  0.20534464  0.77936200  0.34334572    -0.57400
H1221       H  0.17283637  0.74213660  0.37717534     0.18100
O1222       O  0.22279514  0.71902560  0.42844523    -0.64200
H1223       H  0.25517924  0.75654940  0.39491035     0.16600
C1224       C  0.27301393  0.80565320  0.35825899     0.28800
C1225       C  0.29122461  0.82005068  0.33404020    -0.25100
C1226       C  0.28923338  0.81418581  0.29727142    -0.24300
C1227       C  0.26824223  0.79386921  0.28499624     0.40300
C1228       C  0.25024661  0.77987107  0.30906687    -0.26800
O1229       O  0.27527132  0.81162297  0.39399131    -0.58700
H1230       H  0.30694169  0.83561236  0.34407127     0.15900
O1231       O  0.26499081  0.78726207  0.24945815    -0.60100
H1232       H  0.23453339  0.76421192  0.29915402     0.14400
H1233       H  0.22525428  0.70876911  0.41109982     0.46200
H1234       H  0.28421621  0.80431673  0.40473369     0.41600
H1235       H  0.25667435  0.79523393  0.23874945     0.45000
H1236       H  0.20927506  0.79368875  0.35791076     0.36500
C1237       C  0.91841845  0.65356287  0.25024085    -0.27700
C1238       C  0.91098309  0.65462189  0.21499860     0.01900
C1239       C  0.89336707  0.63362948  0.19881197     0.30000
C1240       C  0.88469097  0.61186160  0.21667641    -0.19500
C1241       C  0.89316711  0.61050789  0.25103121    -0.28900
C1242       C  0.90952743  0.63172163  0.26835881     0.44000
C1243       C  0.92309585  0.67724628  0.19433102     0.05200
O1244       O  0.88515672  0.63409593  0.16494768    -0.57400
H1245       H  0.87182808  0.59579726  0.20300497     0.18100
O1246       O  0.91852424  0.63114136  0.30152794    -0.64200
H1247       H  0.93207699  0.66955365  0.26304941     0.16600
C1248       C  0.92442238  0.69819081  0.20777008     0.28800
C1249       C  0.93817448  0.71979973  0.18980394    -0.25100
C1250       C  0.95097093  0.72105081  0.15841588    -0.24300
C1251       C  0.94862190  0.69990925  0.14386877     0.40300
C1252       C  0.93480680  0.67822179  0.16187257    -0.26800
O1253       O  0.91230392  0.69767102  0.23840999    -0.58700
H1254       H  0.93955100  0.73586624  0.20124175     0.15900
O1255       O  0.96136275  0.70050175  0.11399689    -0.60100
H1256       H  0.93412596  0.66226562  0.15133037     0.14400
H1257       H  0.90811046  0.63327147  0.31899345     0.46200
H1258       H  0.92460135  0.70484787  0.25745877     0.41600
H1259       H  0.95055674  0.69781877  0.09340285     0.45000
H1260       H  0.87110275  0.63622034  0.16875463     0.36500
C1261       C  0.79247715  0.54311553  0.17997561    -0.27700
C1262       C  0.79002172  0.53492483  0.14448438     0.01900
C1263       C  0.80453242  0.52556478  0.13247927     0.30000
C1264       C  0.82034089  0.52353556  0.15658014    -0.19500
C1265       C  0.82151017  0.53043124  0.19266641    -0.28900
C1266       C  0.80803114  0.54105975  0.20380876     0.44000
C1267       C  0.77104668  0.53512097  0.12188685     0.05200
O1268       O  0.80362028  0.51877836  0.09726666    -0.57400
H1269       H  0.83088906  0.51570159  0.14746437     0.18100
O1270       O  0.80948258  0.54901437  0.23844813    -0.64200
H1271       H  0.78161302  0.55044488  0.18974323     0.16600
C1272       C  0.75253835  0.51391579  0.10729625     0.28800
C1273       C  0.73256893  0.51365387  0.09197765    -0.25100
C1274       C  0.73024296  0.53421574  0.09143003    -0.24300
C1275       C  0.74914375  0.55562775  0.10500913     0.40300
C1276       C  0.76930492  0.55595146  0.11982254    -0.26800
O1277       O  0.75307112  0.49299443  0.10965277    -0.58700
H1278       H  0.71844039  0.49697272  0.08157406     0.15900
O1279       O  0.74785384  0.57619284  0.10509189    -0.60100
H1280       H  0.78326227  0.57239760  0.13115886     0.14400
H1281       H  0.82367749  0.56514675  0.23876745     0.46200
H1282       H  0.74627436  0.48633480  0.13359704     0.41600
H1283       H  0.74135681  0.57669080  0.12905618     0.45000
H1284       H  0.79760028  0.50137143  0.09789239     0.36500
C1285       C  0.75690637  0.51242952  0.35227974    -0.27700
C1286       C  0.75937104  0.53052287  0.37566548     0.01900
C1287       C  0.78216513  0.55037270  0.38110384     0.30000
C1288       C  0.80216481  0.55140041  0.36430174    -0.19500
C1289       C  0.79978234  0.53270099  0.34223107    -0.28900
C1290       C  0.77677514  0.51344809  0.33549402     0.44000
C1291       C  0.73847504  0.52701679  0.39714535     0.05200
O1292       O  0.78531006  0.56783532  0.40504993    -0.57400
H1293       H  0.81967173  0.56627522  0.36999490     0.18100
O1294       O  0.77351285  0.49516813  0.31320204    -0.64200
H1295       H  0.73949357  0.49709746  0.34773653     0.16600
C1296       C  0.73003078  0.54342276  0.39650952     0.28800
C1297       C  0.71123270  0.54013127  0.41924687    -0.25100
C1298       C  0.70078282  0.52062251  0.44285763    -0.24300
C1299       C  0.70851211  0.50367630  0.44210382     0.40300
C1300       C  0.72704335  0.50685549  0.41923444    -0.26800
O1301       O  0.74030980  0.56292533  0.37436026    -0.58700
H1302       H  0.70558881  0.55339191  0.41964442     0.15900
O1303       O  0.73646646  0.54855313  0.98727753    -0.60100
H1304       H  0.73306425  0.49387882  0.41965905     0.14400
H1305       H  0.77287757  0.50074958  0.28856258     0.46200
H1306       H  0.73301400  0.55701560  0.35041108     0.41600
H1307       H  0.73761404  0.56439929  0.98925437     0.45000
H1308       H  0.78841232  0.58178099  0.39005795     0.36500
C1309       C  0.96623211  0.56522542  0.37814848    -0.27700
C1310       C  0.98641610  0.58498677  0.36414994     0.01900
C1311       C  0.98473417  0.59435929  0.33063842     0.30000
C1312       C  0.96290450  0.58426530  0.31205813    -0.19500
C1313       C  0.94244071  0.56497254  0.32675166    -0.28900
C1314       C  0.94445219  0.55515820  0.35974910     0.44000
C1315       C  0.00913451  0.59574195  0.38472057     0.05200
O1316       O  0.00411274  0.61396656  0.31652150    -0.57400
H1317       H  0.96168736  0.59234835  0.28717826     0.18100
O1318       O  0.92492985  0.53615228  0.37486967    -0.64200
H1319       H  0.96730699  0.55767946  0.40366189     0.16600
C1320       C  0.01136345  0.60673082  0.41841667     0.28800
C1321       C  0.03352897  0.61817396  0.43612386    -0.25100
C1322       C  0.05369812  0.61888144  0.42051718    -0.24300
C1323       C  0.05093201  0.60652815  0.38781019     0.40300
C1324       C  0.02892484  0.59534279  0.37015349    -0.26800
O1325       O  0.99221853  0.60721099  0.43354765    -0.58700
H1326       H  0.03521287  0.62759809  0.46100678     0.15900
O1327       O  0.06991224  0.60598239  0.37210974    -0.60100
H1328       H  0.02737541  0.58657504  0.34464729     0.14400
H1329       H  0.92799786  0.52258295  0.37294944     0.46200
H1330       H  0.99199865  0.62105096  0.42239859     0.41600
H1331       H  0.06985785  0.59179492  0.38244350     0.45000
H1332       H  0.00393657  0.62781402  0.32772021     0.36500
C1333       C  0.75509518  0.24333888  0.35761748    -0.27700
C1334       C  0.77051476  0.24064740  0.38130801     0.01900
C1335       C  0.76729625  0.21772720  0.38753129     0.30000
C1336       C  0.74811295  0.19780177  0.37147434    -0.19500
C1337       C  0.73186032  0.20039628  0.34936260    -0.28900
C1338       C  0.73602432  0.22352862  0.34153654     0.44000
C1339       C  0.78745783  0.26134564  0.40311954     0.05200
O1340       O  0.78150249  0.21444975  0.41168862    -0.57400
H1341       H  0.74523755  0.18021636  0.37789533     0.18100
O1342       O  0.72111888  0.22696058  0.31905162    -0.64200
H1343       H  0.75738717  0.26087152  0.35255015     0.16600
C1344       C  0.81228817  0.27039644  0.40185634     0.28800
C1345       C  0.82738446  0.28931520  0.42453932    -0.25100
C1346       C  0.81786887  0.29887853  0.44920865    -0.24300
C1347       C  0.79309105  0.29028065  0.44940420     0.40300
C1348       C  0.77818744  0.27180228  0.42644008    -0.26800
O1349       O  0.82187993  0.26101932  0.37837131    -0.58700
H1350       H  0.84637953  0.29570599  0.42406050     0.15900
O1351       O  0.78314039  0.29939817  0.47270261    -0.60100
H1352       H  0.75913555  0.26509085  0.42760173     0.14400
H1353       H  0.72875695  0.23002519  0.29503206     0.46200
H1354       H  0.82791479  0.25251444  0.39358605     0.41600
H1355       H  0.78256510  0.31110369  0.94897114     0.45000
H1356       H  0.79177801  0.21035405  0.39693043     0.36500
C1357       C  0.72025342  0.19613368  0.13920367    -0.27700
C1358       C  0.74159613  0.21529778  0.15221358     0.01900
C1359       C  0.74505842  0.21847897  0.18951253     0.30000
C1360       C  0.72745888  0.20293636  0.21321484    -0.19500
C1361       C  0.70595943  0.18367857  0.20070939    -0.28900
C1362       C  0.70254503  0.18023890  0.16318193     0.44000
C1363       C  0.76035657  0.23247672  0.12752759     0.05200
O1364       O  0.76536223  0.23735888  0.20309824    -0.57400
H1365       H  0.73083717  0.20604736  0.24179395     0.18100
O1366       O  0.68203766  0.16166742  0.14963325    -0.64200
H1367       H  0.71736350  0.19348809  0.11047254     0.16600
C1368       C  0.78280237  0.23382160  0.12578463     0.28800
C1369       C  0.80185640  0.25286997  0.10804525    -0.25100
C1370       C  0.79904140  0.27101986  0.09190998    -0.24300
C1371       C  0.77609584  0.26885510  0.09185801     0.40300
C1372       C  0.75704778  0.24974671  0.10963359    -0.26800
O1373       O  0.78659864  0.21718839  0.14294671    -0.58700
H1374       H  0.81914753  0.25393180  0.10829128     0.15900
O1375       O  0.77218617  0.28568127  0.07555041    -0.60100
H1376       H  0.73990585  0.24899609  0.11082623     0.14400
H1377       H  0.67071680  0.16781618  0.14753651     0.46200
H1378       H  0.78183762  0.20410247  0.12531176     0.41600
H1379       H  0.76927335  0.28095269  0.04987133     0.45000
H1380       H  0.77565104  0.23066814  0.21041328     0.36500
C1381       C  0.85052266  0.43263942  0.19832219    -0.27700
C1382       C  0.87202814  0.43230645  0.19892591     0.01900
C1383       C  0.89229568  0.45153415  0.21439023     0.30000
C1384       C  0.89076051  0.47078785  0.22907422    -0.19500
C1385       C  0.86914627  0.47121084  0.22822950    -0.28900
C1386       C  0.84896642  0.45182928  0.21238215     0.44000
C1387       C  0.87316513  0.41297252  0.17934060     0.05200
O1388       O  0.91368355  0.45180588  0.21480344    -0.57400
H1389       H  0.90648939  0.48540450  0.24099961     0.18100
O1390       O  0.82764476  0.45159681  0.20958430    -0.64200
H1391       H  0.83497408  0.41827042  0.18556118     0.16600
C1392       C  0.85852531  0.38895987  0.18927884     0.28800
C1393       C  0.85530115  0.37069867  0.16556752    -0.25100
C1394       C  0.86597928  0.37625593  0.13151077    -0.24300
C1395       C  0.88174511  0.40021795  0.12253916     0.40300
C1396       C  0.88548314  0.41835046  0.14660818    -0.26800
O1397       O  0.84669542  0.38328648  0.22157145    -0.58700
H1398       H  0.84319936  0.35234666  0.17277290     0.15900
O1399       O  0.89313329  0.40606667  0.08984210    -0.60100
H1400       H  0.89667114  0.43672638  0.13854852     0.14400
H1401       H  0.82845602  0.45951124  0.18634404     0.46200
H1402       H  0.83017174  0.37946215  0.21579255     0.41600
H1403       H  0.88375280  0.41106563  0.07457471     0.45000
H1404       H  0.91342012  0.44325541  0.23711069     0.36500
C1405       C  0.87739219  0.46261900  0.39712263    -0.27700
C1406       C  0.86853141  0.46056228  0.43209103     0.01900
C1407       C  0.85773814  0.47407010  0.44216494     0.30000
C1408       C  0.85532854  0.48891682  0.41686142    -0.19500
C1409       C  0.86280598  0.48968977  0.38119390    -0.28900
C1410       C  0.87445185  0.47684501  0.37168146     0.44000
C1411       C  0.86801084  0.44187683  0.45568374     0.05200
O1412       O  0.84929760  0.47261203  0.47647932    -0.57400
H1413       H  0.84652745  0.49882610  0.42461865     0.18100
O1414       O  0.88218369  0.47727485  0.33713825    -0.64200
H1415       H  0.88554590  0.45216091  0.38899766     0.16600
C1416       C  0.84627988  0.42110257  0.46239285     0.28800
C1417       C  0.84608437  0.40165337  0.47915397    -0.25100
C1418       C  0.86743802  0.40227944  0.48916598    -0.24300
C1419       C  0.88917869  0.42361393  0.48405790     0.40300
C1420       C  0.88934593  0.44309278  0.46699501    -0.26800
O1421       O  0.82517509  0.41915196  0.45088913    -0.58700
H1422       H  0.82908408  0.38564711  0.48293759     0.15900
O1423       O  0.91321879  0.42262789  0.97920843    -0.60100
H1424       H  0.90620849  0.45897203  0.46169029     0.14400
H1425       H  0.89733257  0.49258278  0.33489945     0.46200
H1426       H  0.82309321  0.41309010  0.42588774     0.41600
H1427       H  0.91892358  0.42844606  0.00391053     0.45000
H1428       H  0.83172385  0.46278607  0.47454135     0.36500
C1429       C  0.92633942  0.23258950  0.45425777    -0.27700
C1430       C  0.92777404  0.25368491  0.44158442     0.01900
C1431       C  0.94140371  0.26450394  0.41041605     0.30000
C1432       C  0.95410359  0.25470136  0.39340047    -0.19500
C1433       C  0.95349612  0.23416735  0.40714190    -0.28900
C1434       C  0.93899337  0.22284017  0.43738704     0.44000
C1435       C  0.91590544  0.26476367  0.46213548     0.05200
O1436       O  0.94390179  0.28564867  0.39812539    -0.57400
H1437       H  0.96548034  0.26392601  0.37070158     0.18100
O1438       O  0.93707971  0.20213372  0.45067902    -0.64200
H1439       H  0.91568458  0.22385422  0.47780868     0.16600
C1440       C  0.89859258  0.26891561  0.44597405     0.28800
C1441       C  0.88889208  0.28083924  0.46509509    -0.25100
C1442       C  0.89315442  0.28622327  0.99574132    -0.24300
C1443       C  0.91013670  0.28188073  0.01281149     0.40300
C1444       C  0.91969337  0.26941905  0.99459236    -0.26800
O1445       O  0.89071079  0.26092262  0.41175257    -0.58700
H1446       H  0.87598176  0.28428112  0.45168180     0.15900
O1447       O  0.91885876  0.29125162  0.04610434    -0.60100
H1448       H  0.93338743  0.26701989  0.00763346     0.14400
H1449       H  0.94735786  0.20686065  0.47237575     0.46200
H1450       H  0.89588759  0.27541405  0.39688805     0.41600
H1451       H  0.90919008  0.27832978  0.06335441     0.45000
H1452       H  0.93566524  0.28193085  0.37453357     0.36500
C1453       C  0.05606936  0.19704753  0.22078415    -0.27700
C1454       C  0.07870264  0.20352500  0.23482378     0.01900
C1455       C  0.08283037  0.20765551  0.27187422     0.30000
C1456       C  0.06438543  0.20467264  0.29456224    -0.19500
C1457       C  0.04146486  0.19745105  0.28102530    -0.28900
C1458       C  0.03747782  0.19418894  0.24367190     0.44000
C1459       C  0.09757225  0.20388724  0.21191089     0.05200
O1460       O  0.10469955  0.21384370  0.28634927    -0.57400
H1461       H  0.06796871  0.20762477  0.32314830     0.18100
O1462       O  0.01543662  0.18745414  0.22946526    -0.64200
H1463       H  0.05272645  0.19372115  0.19223275     0.16600
C1464       C  0.09591883  0.18241411  0.20050638     0.28800
C1465       C  0.11565315  0.18242059  0.18497634    -0.25100
C1466       C  0.13733747  0.20374047  0.18034875    -0.24300
C1467       C  0.13850231  0.22542878  0.19012851     0.40300
C1468       C  0.11877141  0.22532242  0.20612576    -0.26800
O1469       O  0.07567244  0.16114810  0.20697188    -0.58700
H1470       H  0.11411191  0.16550359  0.17755867     0.15900
O1471       O  0.15908576  0.24672100  0.18581103    -0.60100
H1472       H  0.12026180  0.24194417  0.21518528     0.14400
H1473       H  0.00662762  0.16983671  0.23085017     0.46200
H1474       H  0.06604465  0.15769392  0.18471415     0.41600
H1475       H  0.15766867  0.25254482  0.16174120     0.45000
H1476       H  0.10413720  0.19854813  0.29185715     0.36500
C1477       C  0.13107288  0.21558589  0.01605832    -0.27700
C1478       C  0.12665293  0.20493298  0.98204528     0.01900
C1479       C  0.13803248  0.19170527  0.46873631     0.30000
C1480       C  0.15590407  0.19229375  0.99467905    -0.19500
C1481       C  0.15887430  0.20144350  0.02969398    -0.28900
C1482       C  0.14690221  0.21384195  0.03981044     0.44000
C1483       C  0.10468285  0.20133632  0.45901911     0.05200
O1484       O  0.13506210  0.18264541  0.43459971    -0.57400
H1485       H  0.16512767  0.18288814  0.98644080     0.18100
O1486       O  0.14976656  0.22344697  0.07359160    -0.64200
H1487       H  0.12126508  0.22427270  0.02495418     0.16600
C1488       C  0.08304470  0.17986493  0.45572746     0.28800
C1489       C  0.06299365  0.17975842  0.44092959    -0.25100
C1490       C  0.06387575  0.20097880  0.42950505    -0.24300
C1491       C  0.08588810  0.22240418  0.43168631     0.40300
C1492       C  0.10596132  0.22245110  0.44654848    -0.26800
O1493       O  0.08466679  0.16086609  0.96636545    -0.58700
H1494       H  0.04646388  0.16300707  0.43948506     0.15900
O1495       O  0.08808167  0.24339347  0.41928396    -0.60100
H1496       H  0.12246181  0.23914633  0.44917810     0.14400
H1497       H  0.16421287  0.23936327  0.07200094     0.46200
H1498       H  0.07995275  0.15900139  0.99206663     0.41600
H1499       H  0.08650122  0.25150799  0.44089686     0.45000
H1500       H  0.12417183  0.16528771  0.43724085     0.36500
C1501       C  0.94403505  0.13467182  0.02655965    -0.27700
C1502       C  0.91772065  0.12550054  0.50989468     0.01900
C1503       C  0.91324453  0.12985788  0.47440259     0.30000
C1504       C  0.93207475  0.14550010  0.45245053    -0.19500
C1505       C  0.95568231  0.15710502  0.46507773    -0.28900
C1506       C  0.96014498  0.15377670  0.50104174     0.44000
C1507       C  0.90117044  0.10380535  0.03515854     0.05200
O1508       O  0.89067857  0.11803185  0.46026378    -0.57400
H1509       H  0.92827708  0.14798124  0.42485995     0.18100
O1510       O  0.98575389  0.16082468  0.01621717    -0.64200
H1511       H  0.94817839  0.12993704  0.05248377     0.16600
C1512       C  0.90072501  0.08189439  0.03792369     0.28800
C1513       C  0.88128847  0.06242162  0.05401308    -0.25100
C1514       C  0.86195553  0.06432501  0.06771156    -0.24300
C1515       C  0.86280339  0.08658341  0.06585316     0.40300
C1516       C  0.88220917  0.10601941  0.04932736    -0.26800
O1517       O  0.91853850  0.07894956  0.02296162    -0.58700
H1518       H  0.88114223  0.04558726  0.05491473     0.15900
O1519       O  0.84461279  0.08946223  0.07941124    -0.60100
H1520       H  0.87407323  0.11996770  0.52675543     0.14400
H1521       H  0.98910875  0.15371667  0.50859708     0.46200
H1522       H  0.92974463  0.08157350  0.04297065     0.41600
H1523       H  0.85058059  0.09771595  0.10276040     0.45000
H1524       H  0.88918495  0.10330400  0.44952388     0.36500
C1525       C  0.89434273  0.12556183  0.28693083    -0.27700
C1526       C  0.89141915  0.10252920  0.28721753     0.01900
C1527       C  0.90869347  0.09867633  0.30422561     0.30000
C1528       C  0.92913321  0.11785959  0.31883051    -0.19500
C1529       C  0.93271896  0.14116448  0.31718982    -0.28900
C1530       C  0.91460580  0.14474979  0.30218900     0.44000
C1531       C  0.87284918  0.08364928  0.26445668     0.05200
O1532       O  0.90676382  0.07655973  0.30391958    -0.57400
H1533       H  0.94256780  0.11450234  0.33057914     0.18100
O1534       O  0.91713152  0.16707633  0.30019847    -0.64200
H1535       H  0.88126810  0.12880795  0.27361487     0.16600
C1536       C  0.85553480  0.06150694  0.27851231     0.28800
C1537       C  0.84087609  0.04285333  0.25510449    -0.25100
C1538       C  0.84341954  0.04604026  0.21763160    -0.24300
C1539       C  0.85967759  0.06883305  0.20395299     0.40300
C1540       C  0.87418441  0.08724656  0.22724377    -0.26800
O1541       O  0.85328254  0.05773759  0.31494747    -0.58700
H1542       H  0.82817409  0.02570852  0.26620688     0.15900
O1543       O  0.86193909  0.07327208  0.16765068    -0.60100
H1544       H  0.88725957  0.10422275  0.21603483     0.14400
H1545       H  0.90910735  0.16855740  0.32200578     0.46200
H1546       H  0.84326024  0.06452868  0.32316607     0.41600
H1547       H  0.84999799  0.07820901  0.16187747     0.45000
H1548       H  0.90093837  0.06992701  0.32824876     0.36500
C1549       C  0.98487560  0.39253283  0.07578671    -0.27700
C1550       C  0.98624636  0.40192257  0.11048516     0.01900
C1551       C  0.96554261  0.40029013  0.12572524     0.30000
C1552       C  0.94382214  0.38849428  0.10722868    -0.19500
C1553       C  0.94211376  0.37801547  0.07335189    -0.28900
C1554       C  0.96304259  0.38067426  0.05721916     0.44000
C1555       C  0.00931934  0.41333543  0.13046551     0.05200
O1556       O  0.96651374  0.41067506  0.15834963    -0.57400
H1557       H  0.92803494  0.38705806  0.11992319     0.18100
O1558       O  0.96210852  0.37033360  0.02461907    -0.64200
H1559       H  0.00067476  0.39374857  0.06352503     0.16600
C1560       C  0.01166621  0.40516235  0.16472907     0.28800
C1561       C  0.03396545  0.41550394  0.18203478    -0.25100
C1562       C  0.05430625  0.43372789  0.16532565    -0.24300
C1563       C  0.05167946  0.44242499  0.13163441     0.40300
C1564       C  0.02946126  0.43218663  0.11453629    -0.26800
O1565       O  0.99253717  0.38630789  0.18078869    -0.58700
H1566       H  0.03559581  0.40828243  0.20751819     0.15900
O1567       O  0.07096639  0.46049982  0.11452265    -0.60100
H1568       H  0.02801572  0.43883990  0.08842231     0.14400
H1569       H  0.96595476  0.38304097  0.00658863     0.46200
H1570       H  0.99219143  0.37193175  0.17073209     0.41600
H1571       H  0.07107070  0.47528293  0.12203287     0.45000
H1572       H  0.95726017  0.39731900  0.17520156     0.36500
C1573       C  0.06065305  0.32087223  0.32991891    -0.27700
C1574       C  0.07428817  0.32219174  0.29956221     0.01900
C1575       C  0.07637115  0.30223387  0.29015577     0.30000
C1576       C  0.06386192  0.28098124  0.30965481    -0.19500
C1577       C  0.04910578  0.27916260  0.33881513    -0.28900
C1578       C  0.04810597  0.29956292  0.34950707     0.44000
C1579       C  0.08562364  0.34425627  0.27740359     0.05200
O1580       O  0.09053807  0.30333792  0.26186916    -0.57400
H1581       H  0.06492855  0.26550591  0.30102424     0.18100
O1582       O  0.03326478  0.29830352  0.37684823    -0.64200
H1583       H  0.05894737  0.33615253  0.33752862     0.16600
C1584       C  0.07688987  0.34512748  0.24290847     0.28800
C1585       C  0.08627603  0.36685918  0.22412119    -0.25100
C1586       C  0.10428878  0.38795582  0.23950298    -0.24300
C1587       C  0.11398539  0.38659713  0.27303607     0.40300
C1588       C  0.10450024  0.36501035  0.29175220    -0.26800
O1589       O  0.05845699  0.32505461  0.22806365    -0.58700
H1590       H  0.07847248  0.36744276  0.19859487     0.15900
O1591       O  0.13219685  0.40656374  0.28853936    -0.60100
H1592       H  0.11159274  0.36457304  0.31799786     0.14400
H1593       H  0.04314859  0.30245923  0.39892326     0.46200
H1594       H  0.04376142  0.32443434  0.23744262     0.41600
H1595       H  0.14701293  0.40744551  0.27922242     0.45000
H1596       H  0.07950380  0.29589209  0.24134146     0.36500
C1597       C  0.24582977  0.48362183  0.37763076    -0.27700
C1598       C  0.22772312  0.46208752  0.36377972     0.01900
C1599       C  0.22939312  0.44130989  0.36831287     0.30000
C1600       C  0.24934404  0.44243000  0.38536748    -0.19500
C1601       C  0.26807847  0.46421085  0.39793714    -0.28900
C1602       C  0.26580983  0.48483369  0.39458853     0.44000
C1603       C  0.20907111  0.46227375  0.34053112     0.05200
O1604       O  0.21197336  0.41995677  0.35506273    -0.57400
H1605       H  0.25043772  0.42628196  0.38775730     0.18100
O1606       O  0.28338764  0.50651654  0.40655084    -0.64200
H1607       H  0.24498097  0.49982618  0.37390386     0.16600
C1608       C  0.19308409  0.46955443  0.35336358     0.28800
C1609       C  0.17760552  0.47216825  0.32936757    -0.25100
C1610       C  0.17842351  0.46828620  0.29233293    -0.24300
C1611       C  0.19388085  0.46010938  0.27996196     0.40300
C1612       C  0.20889300  0.45715479  0.30392800    -0.26800
O1613       O  0.19246434  0.47408786  0.38926381    -0.58700
H1614       H  0.16571657  0.47816619  0.33949299     0.15900
O1615       O  0.19492552  0.45545805  0.24417825    -0.60100
H1616       H  0.22114595  0.45166076  0.29359895     0.14400
H1617       H  0.27864057  0.50798460  0.43139022     0.46200
H1618       H  0.20208429  0.49161919  0.39163378     0.41600
H1619       H  0.18197452  0.43887240  0.24051501     0.45000
H1620       H  0.20049297  0.41257031  0.37511975     0.36500
C1621       C  0.25088534  0.45278296  0.05871029    -0.27700
C1622       C  0.25576057  0.46273195  0.09322890     0.01900
C1623       C  0.27950312  0.47466277  0.10570071     0.30000
C1624       C  0.29813831  0.47764659  0.08280576    -0.19500
C1625       C  0.29326110  0.46927709  0.04730832    -0.28900
C1626       C  0.26937951  0.45601277  0.03580530     0.44000
C1627       C  0.23616702  0.46295850  0.11367948     0.05200
O1628       O  0.28455103  0.48355601  0.14005252    -0.57400
H1629       H  0.31639153  0.48753451  0.09214707     0.18100
O1630       O  0.26086713  0.44486614  0.50469716    -0.64200
H1631       H  0.23272737  0.44351289  0.04880382     0.16600
C1632       C  0.23664669  0.48462514  0.12020433     0.28800
C1633       C  0.21686453  0.48472315  0.13526343    -0.25100
C1634       C  0.19599784  0.46335542  0.14354724    -0.24300
C1635       C  0.19565230  0.44158471  0.13748001     0.40300
C1636       C  0.21562975  0.44153854  0.12257084    -0.26800
O1637       O  0.25600939  0.50583935  0.11043544    -0.58700
H1638       H  0.21772307  0.50171758  0.13950461     0.15900
O1639       O  0.17593691  0.42027041  0.14574639    -0.60100
H1640       H  0.21492174  0.42471593  0.11720501     0.14400
H1641       H  0.25983488  0.42905357  0.50626239     0.46200
H1642       H  0.25327752  0.50818861  0.08486263     0.41600
H1643       H  0.16665803  0.41489731  0.12308334     0.45000
H1644       H  0.29263882  0.50110758  0.13738353     0.36500
C1645       C  0.14526899  0.57206106  0.01746697    -0.27700
C1646       C  0.12424561  0.55518268  0.03437554     0.01900
C1647       C  0.10421994  0.55852663  0.03394108     0.30000
C1648       C  0.10603999  0.57941626  0.01949643    -0.19500
C1649       C  0.12770204  0.59722102  0.00518297    -0.28900
C1650       C  0.14704965  0.59279480  0.00268129     0.44000
C1651       C  0.12486749  0.53682683  0.05774445     0.05200
O1652       O  0.08316860  0.54205387  0.04938684    -0.57400
H1653       H  0.09077236  0.58212287  0.02103741     0.18100
O1654       O  0.16485953  0.60559889  0.49062584    -0.64200
H1655       H  0.16089856  0.56991809  0.01764617     0.16600
C1656       C  0.13312908  0.52148744  0.04549272     0.28800
C1657       C  0.13655379  0.50681773  0.07005813    -0.25100
C1658       C  0.13247268  0.50783041  0.10696203    -0.24300
C1659       C  0.12329177  0.52251799  0.11872527     0.40300
C1660       C  0.11962953  0.53675788  0.09431094    -0.26800
O1661       O  0.13782014  0.52072006  0.00967006    -0.58700
H1662       H  0.14336218  0.49548006  0.06048627     0.15900
O1663       O  0.11848366  0.52370307  0.15440368    -0.60100
H1664       H  0.11362147  0.54865232  0.10437854     0.14400
H1665       H  0.16246864  0.60040756  0.46513325     0.46200
H1666       H  0.15543457  0.52893188  0.00771999     0.41600
H1667       H  0.10248681  0.50976526  0.15863000     0.45000
H1668       H  0.07386026  0.53118115  0.02954919     0.36500
C1669       C  0.14714672  0.57151925  0.26485347    -0.27700
C1670       C  0.12779044  0.56776837  0.28642053     0.01900
C1671       C  0.10836175  0.54453536  0.28990466     0.30000
C1672       C  0.10910040  0.52528060  0.27370877    -0.19500
C1673       C  0.12935127  0.52873814  0.25455551    -0.28900
C1674       C  0.14810097  0.55225886  0.24911090     0.44000
C1675       C  0.13028813  0.58691112  0.31112229     0.05200
O1676       O  0.08894308  0.54044921  0.31022058    -0.57400
H1677       H  0.09431760  0.50748240  0.27782610     0.18100
O1678       O  0.16756194  0.55662990  0.22869838    -0.64200
H1679       H  0.16225098  0.58927854  0.26204767     0.16600
C1680       C  0.13452258  0.58509315  0.34766799     0.28800
C1681       C  0.13751980  0.60290250  0.37159178    -0.25100
C1682       C  0.13674211  0.62331610  0.36008441    -0.24300
C1683       C  0.13260911  0.62530829  0.32322286     0.40300
C1684       C  0.12964164  0.60722510  0.29890988    -0.26800
O1685       O  0.13598644  0.56589402  0.36034146    -0.58700
H1686       H  0.14053563  0.60052234  0.39958817     0.15900
O1687       O  0.13192214  0.64489251  0.31054686    -0.60100
H1688       H  0.12674350  0.60899217  0.27063724     0.14400
H1689       H  0.18015554  0.55905446  0.24623690     0.46200
H1690       H  0.15295562  0.57028249  0.35745750     0.41600
H1691       H  0.11489191  0.64054763  0.31156615     0.45000
H1692       H  0.09088513  0.53399557  0.33340916     0.36500
O1693       O  0.14527269  0.50540417  0.67006839    -0.85500
O1694       O  0.15273551  0.51036420  0.74330833    -0.82500
C1695       C  0.13296582  0.50923976  0.74857838     0.98000
O1696       O  0.11438334  0.48967143  0.74373994    -0.82500
O1697       O  0.08298490  0.44495664  0.71995571    -0.85200
C1698       C  0.07803926  0.44282035  0.68657347     1.02500
O1699       O  0.09314461  0.44498520  0.66346742    -0.78000
O1700       O  0.13484638  0.47492203  0.63346139    -0.78100
C1701       C  0.13673171  0.49517554  0.64047429     1.02500
O1702       O  0.17516803  0.48501577  0.66461397    -0.85500
O1703       O  0.17356100  0.48100525  0.73848726    -0.82500
C1704       C  0.16477536  0.47377309  0.76933571     0.98000
O1705       O  0.14441686  0.47130292  0.77778862    -0.82600
O1706       O  0.11296402  0.42825746  0.75241588    -0.85200
C1707       C  0.10922015  0.41221876  0.73010040     1.02500
O1708       O  0.11063077  0.41624271  0.69648053    -0.78000
O1709       O  0.15483941  0.44671759  0.66833477    -0.78100
C1710       C  0.17403872  0.46514005  0.66074005     1.02400
Cr1711     Cr  0.15966394  0.49341961  0.70423325     1.93700
Cr1712     Cr  0.11498196  0.45920452  0.74554695     1.93200
Cr1713     Cr  0.12417321  0.44706239  0.66828449     1.39100
O1714       O  0.13250436  0.46607311  0.70610870    -1.23200
O1715       O  0.97362534  0.15942245  0.91289602    -0.85500
O1716       O  0.97410907  0.15444369  0.83977938    -0.82500
C1717       C  0.95592750  0.15650737  0.83447726     0.98000
O1718       O  0.95741829  0.17645282  0.83920390    -0.82500
O1719       O  0.97287936  0.22226417  0.86243970    -0.85200
C1720       C  0.96845718  0.22280305  0.89563610     1.02500
O1721       O  0.97938025  0.21802547  0.91927515    -0.78000
O1722       O  0.99415111  0.18970178  0.94933221    -0.78100
C1723       C  0.97617895  0.16928157  0.94304821     1.02500
O1724       O  0.02417933  0.18028909  0.91506310    -0.85500
O1725       O  0.02432225  0.18277220  0.84119762    -0.82500
C1726       C  0.02163454  0.18899130  0.81013045     0.98000
O1727       O  0.00417306  0.19247428  0.80332165    -0.82600
O1728       O  0.01845871  0.23585323  0.82972541    -0.85200
C1729       C  0.02896998  0.25233861  0.85206164     1.02500
O1730       O  0.02495046  0.24850643  0.88560179    -0.78000
O1731       O  0.04085093  0.21873376  0.91273944    -0.78100
C1732       C  0.04246966  0.20041242  0.91888574     1.02400
Cr1733     Cr  0.99907741  0.17122946  0.87722893     1.93700
Cr1734     Cr  0.98879161  0.20606573  0.83664023     1.93200
Cr1735     Cr  0.00933658  0.21745391  0.91391952     1.39100
O1736       O  0.99914770  0.19862480  0.87586604    -1.23200
O1737       O  0.82431982  0.31239638  0.50895262    -0.85500
O1738       O  0.82257790  0.31166899  0.58324156    -0.82500
C1739       C  0.82376585  0.29285265  0.58618212     0.98000
O1740       O  0.84313819  0.29353572  0.57882171    -0.82500
O1741       O  0.88798120  0.30792805  0.55051657    -0.85200
C1742       C  0.88884070  0.30548034  0.51670022     1.02500
O1743       O  0.88420535  0.31765013  0.49522648    -0.78000
O1744       O  0.85423407  0.33193990  0.96288949    -0.78100
C1745       C  0.83282172  0.31555363  0.96889244     1.02500
O1746       O  0.84634895  0.36220253  0.50903389    -0.85500
O1747       O  0.85315162  0.36191280  0.58206394    -0.82500
C1748       C  0.86102583  0.35883156  0.61144995     0.98000
O1749       O  0.86244486  0.34004306  0.61687937    -0.82600
O1750       O  0.90451795  0.35305383  0.58641116    -0.85200
C1751       C  0.91994560  0.36530392  0.56337463     1.02500
O1752       O  0.91516620  0.36266123  0.52995608    -0.78000
O1753       O  0.88544850  0.37774393  0.00103599    -0.78100
C1754       C  0.86772854  0.38059545  0.99633345     1.02400
Cr1755     Cr  0.83863486  0.33695116  0.54579973     1.93700
Cr1756     Cr  0.87373887  0.32425206  0.58024810     1.93200
Cr1757     Cr  0.88250240  0.34560368  0.99732562     1.39100
O1758       O  0.86551249  0.33589579  0.54315650    -1.23200
O1759       O  0.84712704  0.49107852  0.75090014    -0.85500
O1760       O  0.85193039  0.49518614  0.82456873    -0.82500
C1761       C  0.85907407  0.50499118  0.85482998     0.98000
O1762       O  0.86053381  0.52507245  0.86140933    -0.82500
O1763       O  0.90357203  0.55408029  0.83352293    -0.85200
C1764       C  0.91961746  0.55872743  0.81066587     1.02500
O1765       O  0.91526395  0.55803619  0.77712360    -0.78000
O1766       O  0.88550582  0.51276098  0.75156047    -0.78100
C1767       C  0.86728405  0.49290167  0.74632459     1.02500
O1768       O  0.82517296  0.51963245  0.75336921    -0.85500
O1769       O  0.82194074  0.51585562  0.82659362    -0.82500
C1770       C  0.82298777  0.53577191  0.82943885     0.98000
O1771       O  0.84271982  0.55428089  0.82437425    -0.82600
O1772       O  0.88845310  0.58449966  0.79975493    -0.85200
C1773       C  0.88915223  0.58883214  0.76631455     1.02500
O1774       O  0.88407273  0.57278683  0.74345641    -0.78000
O1775       O  0.85512333  0.53004327  0.71572054    -0.78100
C1776       C  0.83461672  0.52751561  0.72311981     1.02400
Cr1777     Cr  0.83847801  0.50733884  0.78886066     1.93700
Cr1778     Cr  0.87306570  0.55320235  0.82692699     1.93200
Cr1779     Cr  0.88372351  0.54264772  0.74981196     1.39100
O1780       O  0.86547365  0.53476930  0.78849112    -1.23200
O1781       O  0.17890543  0.69099740  0.92108441    -0.85500
O1782       O  0.17420733  0.68869344  0.99454776    -0.82500
C1783       C  0.16375777  0.68352899  0.52423563     0.98000
O1784       O  0.14221813  0.66736278  0.52983821    -0.82500
O1785       O  0.11617790  0.68564199  0.00132432    -0.85200
C1786       C  0.11175747  0.69744339  0.97887501     1.02500
O1787       O  0.11210257  0.69388015  0.94529956    -0.78000
O1788       O  0.15781993  0.70876871  0.92187974    -0.78100
C1789       C  0.17761081  0.70974037  0.91780623     1.02500
O1790       O  0.14860128  0.64081724  0.91894243    -0.85500
O1791       O  0.15097228  0.63845192  0.99198328    -0.82500
C1792       C  0.12830409  0.61902839  0.49654033     0.98000
O1793       O  0.11061696  0.62199802  0.49217520    -0.82600
O1794       O  0.08438726  0.64126805  0.96475449    -0.85200
C1795       C  0.08080945  0.63793741  0.93101386     1.02500
O1796       O  0.09749297  0.64911767  0.90919295    -0.78000
O1797       O  0.14086551  0.66304280  0.88253424    -0.78100
C1798       C  0.14229298  0.64431747  0.88852104     1.02400
Cr1799     Cr  0.16124901  0.66488403  0.95648856     1.93700
Cr1800     Cr  0.11401095  0.65414730  0.49495187     1.93200
Cr1801     Cr  0.12772663  0.67804662  0.91766021     1.39100
O1802       O  0.13452394  0.66620814  0.95603421    -1.23200
O1803       O  0.02657741  0.84617421  0.66090536    -0.85500
O1804       O  0.02666387  0.84224064  0.58793581    -0.82500
C1805       C  0.02474493  0.83294767  0.55748174     0.98000
O1806       O  0.00701656  0.81250356  0.55032886    -0.82500
O1807       O  0.02121633  0.78336215  0.57854431    -0.85200
C1808       C  0.03269417  0.77874308  0.60142043     1.02500
O1809       O  0.02885524  0.77929863  0.63488398    -0.78000
O1810       O  0.04356075  0.82438765  0.66075170    -0.78100
C1811       C  0.04489028  0.84424604  0.66564006     1.02500
O1812       O  0.97633465  0.81733809  0.65954638    -0.85500
O1813       O  0.97636546  0.82120474  0.58591222    -0.82500
C1814       C  0.95818963  0.80113457  0.58130386     0.98000
O1815       O  0.95995522  0.78280753  0.58630561    -0.82600
O1816       O  0.97552200  0.75264331  0.61172814    -0.85200
C1817       C  0.97185097  0.74831549  0.64520376     1.02500
O1818       O  0.98301260  0.76429366  0.66804988    -0.78000
O1819       O  0.99642190  0.80705793  0.69665410    -0.78100
C1820       C  0.97912143  0.81094289  0.69039211     1.02400
Cr1821     Cr  0.00145614  0.82964272  0.62352356     1.93700
Cr1822     Cr  0.99147268  0.78413145  0.58468068     1.93200
Cr1823     Cr  0.01234557  0.79448141  0.66209885     1.39100
O1824       O  0.00173713  0.80238285  0.62346296    -1.23200
O1825       O  0.30759101  0.82126797  0.74345885    -0.85500
O1826       O  0.30745835  0.81770285  0.66982958    -0.82500
C1827       C  0.28924881  0.81957526  0.66368498     0.98000
O1828       O  0.29012387  0.83928804  0.66878126    -0.82500
O1829       O  0.30488661  0.88486838  0.69691243    -0.85200
C1830       C  0.30134072  0.88568213  0.73053319     1.02500
O1831       O  0.31200559  0.87988101  0.75318015    -0.78000
O1832       O  0.32744554  0.85133662  0.78049020    -0.78100
C1833       C  0.31061120  0.83024520  0.77441549     1.02500
O1834       O  0.35804043  0.84321953  0.74421512    -0.85500
O1835       O  0.35757420  0.84729300  0.67120624    -0.82500
C1836       C  0.35548749  0.85490181  0.64101146     0.90800
O1837       O  0.33746164  0.85747860  0.63416206    -0.82600
O1838       O  0.35072349  0.90003674  0.66354229    -0.85200
C1839       C  0.36169175  0.91582781  0.68675826     1.02500
O1840       O  0.35741525  0.91113678  0.71998076    -0.78000
O1841       O  0.37354989  0.88155733  0.74379854    -0.78100
C1842       C  0.37579153  0.86356260  0.74904101     1.02400
Cr1843     Cr  0.33251707  0.83441005  0.70714914     1.93700
Cr1844     Cr  0.32127467  0.86962064  0.66889446     1.93200
Cr1845     Cr  0.34193900  0.87958658  0.74632320     1.39100
O1846       O  0.33169292  0.86141574  0.70749385    -1.23200
O1847       O  0.15946055  0.97577316  0.83960167    -0.85500
O1848       O  0.15699981  0.97525990  0.91346283    -0.82500
C1849       C  0.16066127  0.95813949  0.91957970     0.98000
O1850       O  0.18115623  0.96086063  0.91402830    -0.82500
O1851       O  0.22645871  0.97825988  0.88397685    -0.85200
C1852       C  0.22565871  0.97345637  0.85053382     1.02500
O1853       O  0.21832877  0.98300909  0.82819447    -0.78000
O1854       O  0.18824912  0.99687394  0.80131705    -0.78100
C1855       C  0.16770394  0.97923188  0.80805795     1.02500
O1856       O  0.17899037  0.02598701  0.83950020    -0.85500
O1857       O  0.18315197  0.02561420  0.91275227    -0.82500
C1858       C  0.19057234  0.02350781  0.94315989     0.98000
O1859       O  0.19658424  0.00762581  0.94849318    -0.82600
O1860       O  0.23934964  0.02425149  0.91644525    -0.85200
C1861       C  0.25463594  0.03450454  0.89222172     1.02500
O1862       O  0.24935770  0.02895541  0.85941584    -0.78000
O1863       O  0.21759385  0.04346783  0.83721666    -0.78100
C1864       C  0.19870126  0.04453078  0.83425564     1.02400
Cr1865     Cr  0.17182959  0.00072111  0.87615573     1.93700
Cr1866     Cr  0.21004270  0.99323041  0.91273382     1.93200
Cr1867     Cr  0.21709744  0.01246128  0.83466923     1.39100
O1868       O  0.19988215  0.00207226  0.87456410    -1.23200
O1869       O  0.49687154  0.15797397  0.59112151    -0.85500
O1870       O  0.51005138  0.14049729  0.53444336    -0.82500
C1871       C  0.50661665  0.12356198  0.00894072     0.98000
O1872       O  0.48734616  0.11427555  0.99150032    -0.82500
O1873       O  0.45567807  0.08344199  0.54179583    -0.85200
C1874       C  0.44087938  0.07597979  0.56761656     1.02500
O1875       O  0.43064056  0.08758347  0.57643680    -0.78000
O1876       O  0.46917791  0.12329271  0.61072886    -0.78100
C1877       C  0.49030829  0.14048976  0.61232485     1.02500
O1878       O  0.47440066  0.17565182  0.54260641    -0.85500
O1879       O  0.48915684  0.15803371  0.98829511    -0.82500
C1880       C  0.47059144  0.14988549  0.96884846     0.98000
O1881       O  0.45331022  0.12915090  0.97414151    -0.82600
O1882       O  0.42040705  0.09394609  0.51273734    -0.85200
C1883       C  0.40939966  0.10469489  0.52230766     1.02500
O1884       O  0.41836953  0.12096022  0.54595197    -0.78000
O1885       O  0.45365662  0.15635792  0.58969802    -0.78100
C1886       C  0.46306390  0.17493855  0.57062711     1.02400
Cr1887     Cr  0.49051296  0.15626744  0.53833179     1.93700
Cr1888     Cr  0.45457692  0.10580877  0.00784124     1.93200
Cr1889     Cr  0.44428941  0.12267500  0.57810197     1.39100
O1890       O  0.46350695  0.12887776  0.54093862    -1.23200
O1891       O  0.84210439  0.02662658  0.58603424    -0.85500
O1892       O  0.83921080  0.02868145  0.66034582    -0.82500
C1893       C  0.83005248  0.02550450  0.69132475     0.98000
O1894       O  0.81020182  0.00696037  0.69854396    -0.82500
O1895       O  0.77806823  0.01778144  0.67214539    -0.85200
C1896       C  0.77349661  0.02957865  0.64983951     1.02500
O1897       O  0.77496653  0.02705914  0.61615288    -0.78000
O1898       O  0.81971110  0.04275369  0.58755974    -0.78100
C1899       C  0.83953316  0.04443101  0.58057705     1.02500
O1900       O  0.81515536  0.97679295  0.59080115    -0.85500
O1901       O  0.82136450  0.97910918  0.66427964    -0.82500
C1902       C  0.80225184  0.96006271  0.66977608     0.98000
O1903       O  0.78288841  0.95960273  0.66341781    -0.82600
O1904       O  0.74976288  0.97182089  0.63949663    -0.85200
C1905       C  0.74488300  0.96888702  0.60616194     1.02500
O1906       O  0.76005426  0.98137269  0.58297502    -0.78000
O1907       O  0.80259327  0.99496056  0.55352536    -0.78100
C1908       C  0.80640888  0.97774668  0.56085972     1.02400
Cr1909     Cr  0.82739011  0.00275258  0.62540366     1.93700
Cr1910     Cr  0.78150364  0.98970573  0.66533743     1.93200
Cr1911     Cr  0.79015799  0.01102048  0.58799579     1.39100
O1912       O  0.79923978  0.00117668  0.62622939    -1.23200
O1913       O  0.49021606  0.84668669  0.99715501    -0.85500
O1914       O  0.49353499  0.85097455  0.92341550    -0.82500
C1915       C  0.50286008  0.85815733  0.89284215     0.98000
O1916       O  0.52349962  0.86087782  0.88572119    -0.82500
O1917       O  0.55431294  0.90363971  0.91306420    -0.85200
C1918       C  0.55851874  0.91982099  0.93539570     1.02500
O1919       O  0.55636516  0.91543816  0.96899078    -0.78000
O1920       O  0.51120179  0.88604148  0.49450452    -0.78100
C1921       C  0.49140791  0.86777728  0.50029959     1.02500
O1922       O  0.51833226  0.82582995  0.49670493    -0.85500
O1923       O  0.51406022  0.82163089  0.92041717    -0.82500
C1924       C  0.53378148  0.82256608  0.91596568     0.98000
O1925       O  0.55242917  0.84195210  0.92182263    -0.82600
O1926       O  0.58329429  0.88688284  0.94742351    -0.85200
C1927       C  0.58756136  0.88865118  0.98102412     1.02500
O1928       O  0.57174048  0.88522171  0.00360034    -0.78000
O1929       O  0.52844315  0.85649790  0.53275742    -0.78100
C1930       C  0.52559060  0.83572675  0.52688338     1.02400
Cr1931     Cr  0.50641285  0.83827668  0.95880707     1.93700
Cr1932     Cr  0.55204062  0.87261168  0.91990002     1.93200
Cr1933     Cr  0.54123506  0.88429747  0.49709564     1.39100
O1934       O  0.53363988  0.86547311  0.95835426    -1.23200
O1935       O  0.69156072  0.17922440  0.83365168    -0.85500
O1936       O  0.69132818  0.17657303  0.76042898    -0.82500
C1937       C  0.68901225  0.16757355  0.72960019     0.98000
O1938       O  0.67105181  0.14729297  0.72247825    -0.82500
O1939       O  0.68513507  0.11816672  0.75081799    -0.85200
C1940       C  0.69452705  0.11093717  0.77342916     1.02500
O1941       O  0.68971774  0.11030584  0.80667541    -0.78000
O1942       O  0.70750100  0.15641896  0.83235839    -0.78100
C1943       C  0.70961715  0.17668507  0.83688895     1.02500
O1944       O  0.64119307  0.15213175  0.83359884    -0.85500
O1945       O  0.64086152  0.15639491  0.75953348    -0.82500
C1946       C  0.62302105  0.13653982  0.75203645     0.98000
O1947       O  0.62409623  0.11782696  0.75729419    -0.82600
O1948       O  0.63945130  0.08696206  0.78351326    -0.85200
C1949       C  0.63503799  0.08224517  0.81689135     1.02500
O1950       O  0.64482131  0.09829373  0.84009798    -0.78000
O1951       O  0.66166340  0.14152749  0.86928178    -0.78100
C1952       C  0.64434899  0.14542257  0.86405311     1.02400
Cr1953     Cr  0.66609852  0.16405105  0.79668960     1.93700
Cr1954     Cr  0.65538094  0.11873941  0.75657053     1.93200
Cr1955     Cr  0.67539819  0.12745338  0.83415955     1.39100
O1956       O  0.66546002  0.13641004  0.79582352    -1.23200
O1957       O  0.51149752  0.35506655  0.75666980    -0.85500
O1958       O  0.50661439  0.35422012  0.82993972    -0.82500
C1959       C  0.49679747  0.35126536  0.86025545     0.98000
O1960       O  0.47720752  0.33234588  0.86689007    -0.82500
O1961       O  0.44708644  0.34530294  0.83903614    -0.85200
C1962       C  0.44145719  0.35607030  0.81635362     1.02500
O1963       O  0.44185975  0.35228112  0.78285249    -0.78000
O1964       O  0.48761981  0.36968004  0.75659876    -0.78100
C1965       C  0.50809045  0.37242743  0.75120196     1.02500
O1966       O  0.48533488  0.30467738  0.75627701    -0.85500
O1967       O  0.48817454  0.30383991  0.83071604    -0.82500
C1968       C  0.46850548  0.28513093  0.83589115     0.98000
O1969       O  0.44949667  0.28563056  0.83015029    -0.82600
O1970       O  0.41755061  0.29996158  0.80531857    -0.85200
C1971       C  0.41296170  0.29633413  0.77190180     1.02500
O1972       O  0.42900565  0.30717884  0.74888953    -0.78000
O1973       O  0.47278971  0.32350361  0.72034060    -0.78100
C1974       C  0.47862097  0.30747709  0.72559713     1.02400
Cr1975     Cr  0.49570925  0.32924273  0.79354988     1.93700
Cr1976     Cr  0.44914589  0.31635142  0.83226452     1.93200
Cr1977     Cr  0.45860587  0.33753601  0.75516799     1.39100
O1978       O  0.46741922  0.32752848  0.79349062    -1.23200
O1979       O  0.18046803  0.15574985  0.58660056    -0.85500
O1980       O  0.18206877  0.15944460  0.65984412    -0.82500
C1981       C  0.18804961  0.16838306  0.69080200     0.98000
O1982       O  0.19179974  0.18945830  0.69695360    -0.82500
O1983       O  0.23554756  0.21827472  0.67126819    -0.85200
C1984       C  0.25220855  0.22262033  0.64986400     1.02500
O1985       O  0.24883879  0.22180721  0.61598889    -0.78000
O1986       O  0.21893059  0.17657080  0.59001676    -0.78100
C1987       C  0.20053222  0.15693225  0.58440305     1.02500
O1988       O  0.15975254  0.18581745  0.58542923    -0.85500
O1989       O  0.15376587  0.18160085  0.65836765    -0.82500
C1990       C  0.15598695  0.20189050  0.66317844     0.98000
O1991       O  0.17598846  0.21994498  0.65846516    -0.82600
O1992       O  0.22152332  0.24922632  0.63482758    -0.85200
C1993       C  0.22280791  0.25320714  0.60113913     1.02500
O1994       O  0.21920408  0.23717207  0.57895558    -0.78000
O1995       O  0.19046794  0.19470304  0.55008834    -0.78100
C1996       C  0.16995870  0.19277246  0.55546191     1.02400
Cr1997     Cr  0.17106074  0.17265102  0.62257891     1.93700
Cr1998     Cr  0.20558226  0.21789156  0.66239147     1.93200
Cr1999     Cr  0.21801213  0.20684735  0.58659145     1.39100
O2000       O  0.19860174  0.19947891  0.62393400    -1.23200
O2001       O  0.36077461  0.51094835  0.99310951    -0.85500
O2002       O  0.36153218  0.50624150  0.91944607    -0.82500
C2003       C  0.35901500  0.49598691  0.88953350     0.98000
O2004       O  0.34053652  0.47587122  0.88306534    -0.82500
O2005       O  0.35093964  0.44418661  0.91174486    -0.85200
C2006       C  0.36322158  0.44049015  0.93423948     1.02500
O2007       O  0.36124004  0.44305512  0.96775311    -0.78000
O2008       O  0.37463340  0.48605195  0.49398662    -0.78100
C2009       C  0.37589372  0.50572632  0.50082714     1.02500
O2010       O  0.30737737  0.47934346  0.49273720    -0.85500
O2011       O  0.31173729  0.48771431  0.91640856    -0.82500
C2012       C  0.29293794  0.46819867  0.91192958     0.98000
O2013       O  0.29310848  0.44939784  0.91963546    -0.82600
O2014       O  0.30512009  0.41751517  0.94674793    -0.85200
C2015       C  0.30264305  0.41381791  0.98047736     1.02500
O2016       O  0.31606932  0.42951481  0.00233801    -0.78000
O2017       O  0.32764078  0.46899694  0.52944306    -0.78100
C2018       C  0.30972973  0.47181717  0.52294050     1.02400
Cr2019     Cr  0.33603616  0.49495982  0.95499943     1.93700
Cr2020     Cr  0.32314749  0.44813619  0.91816586     1.93200
Cr2021     Cr  0.34309615  0.45630298  0.49431937     1.39100
O2022       O  0.33502786  0.46705410  0.95586448    -1.23200
O2023       O  0.49108797  0.64073088  0.67586398    -0.85500
O2024       O  0.48946090  0.63998378  0.74905152    -0.82500
C2025       C  0.49177582  0.62172734  0.75127037     0.98000
O2026       O  0.51179553  0.62369965  0.74464363    -0.82500
O2027       O  0.55742038  0.64080167  0.71792174    -0.85200
C2028       C  0.55673749  0.63686335  0.68436091     1.02500
O2029       O  0.54996834  0.64716634  0.66272473    -0.78000
O2030       O  0.52005413  0.66078607  0.63716461    -0.78100
C2031       C  0.49980894  0.64278475  0.64488634     1.02500
O2032       O  0.51197077  0.69127136  0.67543678    -0.85500
O2033       O  0.51785708  0.69058368  0.74847898    -0.82500
C2034       C  0.52542483  0.68751501  0.77813473     0.98000
O2035       O  0.52788280  0.66933249  0.78340690    -0.82600
O2036       O  0.57086601  0.68543846  0.75306639    -0.85200
C2037       C  0.58660383  0.69643668  0.72970656     1.02500
O2038       O  0.58162559  0.69254810  0.69629569    -0.78000
O2039       O  0.55044815  0.70766729  0.67365016    -0.78100
C2040       C  0.53201297  0.70939874  0.66994978     1.02400
Cr2041     Cr  0.50453405  0.66571097  0.71204727     1.93700
Cr2042     Cr  0.54115717  0.65534824  0.74700465     1.93200
Cr2043     Cr  0.54934493  0.67654041  0.67032409     1.39100
O2044       O  0.53201374  0.66590170  0.70972181    -1.23200
O2045       O  0.63790587  0.49073455  0.57613805    -0.85500
O2046       O  0.63711100  0.48624731  0.50339611    -0.82500
C2047       C  0.62113588  0.48858483  0.99365189     0.98000
O2048       O  0.62180110  0.50805657  0.99962421    -0.82500
O2049       O  0.63847951  0.55562597  0.52530049    -0.85200
C2050       C  0.63275144  0.55461880  0.55820502     1.02500
O2051       O  0.64175030  0.54751541  0.58159649    -0.78000
O2052       O  0.65759629  0.52073240  0.61285923    -0.78100
C2053       C  0.63994289  0.50012926  0.60652226     1.02500
O2054       O  0.68906801  0.51270043  0.57652116    -0.85500
O2055       O  0.69022908  0.51770128  0.99893288    -0.82500
C2056       C  0.68730022  0.52471212  0.96863726     0.98000
O2057       O  0.66874708  0.52648273  0.96235745    -0.82600
O2058       O  0.68392139  0.56784178  0.49375849    -0.85200
C2059       C  0.69311334  0.58428035  0.51659569     1.02500
O2060       O  0.68743402  0.57996666  0.54966390    -0.78000
O2061       O  0.70406367  0.55113253  0.57679489    -0.78100
C2062       C  0.70654560  0.53326237  0.58203090     1.02400
Cr2063     Cr  0.66301158  0.50293302  0.53975159     1.93700
Cr2064     Cr  0.65261022  0.53847632  0.99747219     1.93200
Cr2065     Cr  0.67225424  0.54856761  0.57732520     1.39100
O2066       O  0.66302557  0.53025837  0.53868280    -1.23200
O2067       O  0.81917780  0.84260449  0.84256776    -0.85500
O2068       O  0.82062659  0.84428060  0.91617149    -0.82500
C2069       C  0.80063529  0.84312133  0.91988261     0.98000
O2070       O  0.78207392  0.82388503  0.91239468    -0.82500
O2071       O  0.75169058  0.77844621  0.88456817    -0.85200
C2072       C  0.74804288  0.77900220  0.85099155     1.02500
O2073       O  0.76489074  0.78545070  0.82904436    -0.78000
O2074       O  0.80924350  0.81335928  0.80378030    -0.78100
C2075       C  0.81252304  0.83402301  0.81153641     1.02500
O2076       O  0.84668625  0.81924641  0.84187859    -0.85500
O2077       O  0.84050139  0.81345681  0.91485695    -0.82500
C2078       C  0.83023453  0.80681658  0.94487122     0.98000
O2079       O  0.80983596  0.80499232  0.95011344    -0.82600
O2080       O  0.78155379  0.76263220  0.91918280    -0.85200
C2081       C  0.77598130  0.74692764  0.89549574     1.02500
O2082       O  0.77694050  0.75206897  0.86221002    -0.78000
O2083       O  0.82349982  0.78095616  0.83867248    -0.78100
C2084       C  0.84389174  0.79888128  0.83540402     1.02400
Cr2085     Cr  0.82975352  0.82796596  0.87866648     1.93700
Cr2086     Cr  0.78261549  0.79327724  0.91369179     1.93200
Cr2087     Cr  0.79434569  0.78416469  0.83647258     1.39100
O2088       O  0.80194978  0.80148282  0.87620203    -1.23200
C2089       C  0.72693201  0.65275170  0.99976494    -0.27700
C2090       C  0.73360294  0.65416181  0.96335660     0.01900
C2091       C  0.72898128  0.63317859  0.94546745     0.30000
C2092       C  0.71713338  0.61124452  0.96329843    -0.19500
C2093       C  0.70963943  0.60876095  0.50289340    -0.28900
C2094       C  0.71426202  0.62956419  0.52176872     0.44000
C2095       C  0.74512433  0.67743116  0.94394355     0.05200
O2096       O  0.73629857  0.63399799  0.91057095    -0.57400
H2097       H  0.71357509  0.59539080  0.94846122     0.18100
O2098       O  0.70564360  0.62819161  0.55591348    -0.64200
H2099       H  0.73049141  0.66879514  0.01401707     0.16600
C2100       C  0.73401262  0.68156233  0.91415792     0.28800
C2101       C  0.74508364  0.70371061  0.89645763    -0.25100
C2102       C  0.76710346  0.72219320  0.90842192    -0.24300
C2103       C  0.77841839  0.71781193  0.93767211     0.40300
C2104       C  0.76744579  0.69567816  0.95516218    -0.26800
O2105       O  0.71187865  0.66437375  0.90302557    -0.58700
H2106       H  0.73579040  0.70687977  0.87472880     0.15900
O2107       O  0.80002084  0.73535303  0.95000971    -0.60100
H2108       H  0.77634016  0.69279846  0.97775969     0.14400
H2109       H  0.71834518  0.62920519  0.57205858     0.46200
H2110       H  0.70046964  0.66645223  0.91840220     0.41600
H2111       H  0.81204409  0.73318162  0.93642701     0.45000
H2112       H  0.72160010  0.62758699  0.89582507     0.36500
C2113       C  0.65417917  0.72858866  0.74441689    -0.27700
C2114       C  0.65592280  0.73800971  0.77920500     0.01900
C2115       C  0.63524341  0.73600973  0.79514257     0.30000
C2116       C  0.61324988  0.72388952  0.77732345    -0.19500
C2117       C  0.61108289  0.71319657  0.74344330    -0.28900
C2118       C  0.63198296  0.71610987  0.72667314     0.44000
C2119       C  0.67912471  0.74936835  0.79915595     0.05200
O2120       O  0.63643057  0.74612002  0.82808158    -0.57400
H2121       H  0.59757239  0.72221663  0.79072801     0.18100
O2122       O  0.63081913  0.70590288  0.69386497    -0.64200
H2123       H  0.66993887  0.73009412  0.73157423     0.16600
C2124       C  0.68184821  0.73974544  0.83184074     0.28800
C2125       C  0.70388633  0.75047449  0.84999455    -0.25100
C2126       C  0.72374619  0.77066258  0.83576704    -0.24300
C2127       C  0.72080744  0.78056576  0.80343991     0.40300
C2128       C  0.69877278  0.76990807  0.78546449    -0.26800
O2129       O  0.66330013  0.71928943  0.84561080    -0.58700
H2130       H  0.70576713  0.74221657  0.87422960     0.15900
O2131       O  0.73957651  0.80042286  0.78861792    -0.60100
H2132       H  0.69704744  0.77767089  0.76057676     0.14400
H2133       H  0.62791913  0.68965925  0.69937784     0.46200
H2134       H  0.66402357  0.70613279  0.83301193     0.41600
H2135       H  0.74038145  0.81404693  0.80208750     0.45000
H2136       H  0.62893260  0.73263586  0.84524417     0.36500
C2137       C  0.59177001  0.56351804  0.62018069    -0.27700
C2138       C  0.59515927  0.58555820  0.60859618     0.01900
C2139       C  0.60853823  0.59600076  0.57717091     0.30000
C2140       C  0.61928928  0.58479446  0.55871280    -0.19500
C2141       C  0.61675532  0.56319531  0.57133078    -0.28900
C2142       C  0.60225600  0.55224720  0.60171214     0.44000
C2143       C  0.58434775  0.59727976  0.62942575     0.05200
O2144       O  0.61254449  0.61789521  0.56587110    -0.57400
H2145       H  0.63078435  0.59370364  0.53597572     0.18100
O2146       O  0.59916593  0.53100332  0.61465853    -0.64200
H2147       H  0.58118746  0.55517283  0.64395928     0.16600
C2148       C  0.56612838  0.60029501  0.61424246     0.28800
C2149       C  0.55640439  0.61190766  0.63361934    -0.25100
C2150       C  0.56465515  0.62092661  0.66837472    -0.24300
C2151       C  0.58226518  0.61702012  0.68426365     0.40300
C2152       C  0.59185960  0.60505174  0.66482818    -0.26800
O2153       O  0.55795738  0.59227956  0.58016726    -0.58700
H2154       H  0.54270153  0.61443478  0.62085408     0.15900
O2155       O  0.59086216  0.62556810  0.71796688    -0.60100
H2156       H  0.60570260  0.60247554  0.67694080     0.14400
H2157       H  0.58716233  0.51866995  0.59859430     0.46200
H2158       H  0.54562179  0.57535825  0.58319396     0.41600
H2159       H  0.60477622  0.64160059  0.71398353     0.45000
H2160       H  0.60216070  0.61469073  0.54454944     0.36500
C2161       C  0.45337058  0.55709606  0.78128554    -0.27700
C2162       C  0.43237430  0.55698162  0.79149684     0.01900
C2163       C  0.43040995  0.57744285  0.78585548     0.30000
C2164       C  0.44963908  0.59802685  0.77185547    -0.19500
C2165       C  0.47119768  0.59873440  0.76305518    -0.28900
C2166       C  0.47265189  0.57769660  0.76680943     0.44000
C2167       C  0.41428083  0.53739689  0.81368434     0.05200
O2168       O  0.41041398  0.57809041  0.79671023    -0.57400
H2169       H  0.44783104  0.61375422  0.76904117     0.18100
O2170       O  0.49283363  0.57709413  0.75693337    -0.64200
H2171       H  0.45509264  0.54142909  0.78569029     0.16600
C2172       C  0.39081880  0.52261352  0.80139250     0.28800
C2173       C  0.37286799  0.50793122  0.82577175    -0.25100
C2174       C  0.37811033  0.50820449  0.86250162    -0.24300
C2175       C  0.40201116  0.52182944  0.87406222     0.40300
C2176       C  0.41979859  0.53616987  0.84972142    -0.26800
O2177       O  0.38506522  0.52336782  0.76609493    -0.58700
H2178       H  0.35469530  0.49740929  0.81635510     0.15900
O2179       O  0.40806097  0.52212924  0.90954460    -0.60100
H2180       H  0.43777122  0.54749128  0.85949418     0.14400
H2181       H  0.50205715  0.57981927  0.77947274     0.46200
H2182       H  0.38781642  0.51133828  0.75372763     0.41600
H2183       H  0.40938577  0.50760387  0.91292568     0.45000
H2184       H  0.40014553  0.57380577  0.77505886     0.36500
C2185       C  0.43431279  0.54241032  0.55184314    -0.27700
C2186       C  0.43641478  0.56516172  0.55127191     0.01900
C2187       C  0.41948614  0.56838914  0.53183304     0.30000
C2188       C  0.40052354  0.54906361  0.51454867    -0.19500
C2189       C  0.39779492  0.52607963  0.51626025    -0.28900
C2190       C  0.41531549  0.52301253  0.53442939     0.44000
C2191       C  0.45461757  0.58475101  0.57401078     0.05200
O2192       O  0.42066220  0.59016915  0.53090589    -0.57400
H2193       H  0.38749580  0.55202521  0.50049438     0.18100
O2194       O  0.41333491  0.50094220  0.53725680    -0.64200
H2195       H  0.44713694  0.53954172  0.56668672     0.16600
C2196       C  0.45531444  0.58140245  0.61129670     0.28800
C2197       C  0.47069586  0.60036043  0.63321267    -0.25100
C2198       C  0.48570036  0.62320480  0.61897414    -0.24300
C2199       C  0.48575324  0.62646035  0.58149263     0.40300
C2200       C  0.47012911  0.60735743  0.55933855    -0.26800
O2201       O  0.44034265  0.55983490  0.62691022    -0.58700
H2202       H  0.47050187  0.59718843  0.66188798     0.15900
O2203       O  0.49990210  0.64841789  0.56650612    -0.60100
H2204       H  0.46984244  0.61029257  0.53069235     0.14400
H2205       H  0.42748443  0.50485245  0.00244062     0.46200
H2206       H  0.42580786  0.56057409  0.63341187     0.41600
H2207       H  0.51425176  0.64805467  0.55783021     0.45000
H2208       H  0.41145894  0.59036123  0.55215283     0.36500
C2209       C  0.25343384  0.31997529  0.58379965    -0.27700
C2210       C  0.24686605  0.32043526  0.54770319     0.01900
C2211       C  0.23025282  0.29892218  0.53143565     0.30000
C2212       C  0.22164829  0.27750435  0.55020267    -0.19500
C2213       C  0.22911782  0.27681095  0.58561239    -0.28900
C2214       C  0.24447742  0.29842480  0.60286234     0.44000
C2215       C  0.25812729  0.34315930  0.52685044     0.05200
O2216       O  0.22267389  0.29850546  0.49682481    -0.57400
H2217       H  0.20945700  0.26116835  0.53646440     0.18100
O2218       O  0.25218517  0.29861665  0.63729222    -0.64200
H2219       H  0.26628766  0.33628143  0.59687707     0.16600
C2220       C  0.25998005  0.36409780  0.54146440     0.28800
C2221       C  0.27293568  0.38574496  0.52335825    -0.25100
C2222       C  0.28443538  0.39073002  0.99619053    -0.24300
C2223       C  0.27700820  0.36884456  0.97881982     0.40300
C2224       C  0.26804441  0.34426214  0.49259181    -0.26800
O2225       O  0.24974681  0.36376063  0.57395734    -0.58700
H2226       H  0.27502475  0.40176617  0.53605303     0.15900
O2227       O  0.28395882  0.36815336  0.94420385    -0.60100
H2228       H  0.26695927  0.32843029  0.48080402     0.14400
H2229       H  0.24065819  0.30030806  0.65292515     0.46200
H2230       H  0.23301547  0.35921545  0.56825683     0.41600
H2231       H  0.27123379  0.36784339  0.92885812     0.45000
H2232       H  0.20909423  0.30156413  0.49896336     0.36500
C2233       C  0.52404072  0.38569989  0.94673562    -0.27700
C2234       C  0.53764002  0.40887997  0.93292354     0.01900
C2235       C  0.53547821  0.41310292  0.89643500     0.30000
C2236       C  0.52134096  0.39412901  0.87373971    -0.19500
C2237       C  0.50868566  0.37068709  0.88687374    -0.28900
C2238       C  0.50917549  0.36667546  0.92402952     0.44000
C2239       C  0.55704628  0.42781136  0.95435968     0.05200
O2240       O  0.54882045  0.43543241  0.88205064    -0.57400
H2241       H  0.52084354  0.39771604  0.84534713     0.18100
O2242       O  0.49677475  0.34412232  0.93788926    -0.64200
H2243       H  0.52568126  0.38224149  0.97481655     0.16600
C2244       C  0.55696342  0.44889392  0.96360383     0.28800
C2245       C  0.57769895  0.46839225  0.97720883    -0.25100
C2246       C  0.59878670  0.46722800  0.98169237    -0.24300
C2247       C  0.59827798  0.44551841  0.97403165     0.40300
C2248       C  0.57758151  0.42616693  0.96049646    -0.26800
O2249       O  0.53702763  0.45093216  0.95805585    -0.58700
H2250       H  0.57741519  0.48463845  0.98336418     0.15900
O2251       O  0.60921401  0.44007785  0.50530974    -0.60100
H2252       H  0.57793830  0.41012310  0.95305886     0.14400
H2253       H  0.48114453  0.34222596  0.94522505     0.46200
H2254       H  0.52685388  0.44349795  0.97945407     0.41600
H2255       H  0.60564079  0.43831471  0.53143675     0.45000
H2256       H  0.53800375  0.44224658  0.88143456     0.36500
C2257       C  0.60648283  0.47281249  0.69460891    -0.27700
C2258       C  0.58440221  0.45504947  0.68111496     0.01900
C2259       C  0.58043872  0.45368446  0.64382022     0.30000
C2260       C  0.59848842  0.46906522  0.62057321    -0.19500
C2261       C  0.62099153  0.48625083  0.63355517    -0.28900
C2262       C  0.62460248  0.48864825  0.67110790     0.44000
C2263       C  0.56608395  0.43643130  0.70487015     0.05200
O2264       O  0.55917348  0.43666525  0.62961854    -0.57400
H2265       H  0.59491598  0.46711777  0.59191687     0.18100
O2266       O  0.64604313  0.50544523  0.68501586    -0.64200
H2267       H  0.60979377  0.47412442  0.72331144     0.16600
C2268       C  0.57017567  0.41892306  0.72045077     0.28800
C2269       C  0.55132616  0.39864036  0.73625992    -0.25100
C2270       C  0.52804406  0.39535395  0.73723391    -0.24300
C2271       C  0.52428386  0.41360912  0.72328644     0.40300
C2272       C  0.54317431  0.43383255  0.70721675    -0.26800
O2273       O  0.59214621  0.42056474  0.71788295    -0.58700
H2274       H  0.55489205  0.38509356  0.74691407     0.15900
O2275       O  0.50210491  0.41158478  0.72402161    -0.60100
H2276       H  0.53970292  0.44710236  0.69517083     0.14400
H2277       H  0.64387624  0.51924183  0.69087389     0.46200
H2278       H  0.60067529  0.42884709  0.74013257     0.41600
H2279       H  0.49457889  0.40396742  0.70085669     0.45000
H2280       H  0.56119641  0.42259270  0.62549822     0.36500
C2281       C  0.36253485  0.25712972  0.70858055    -0.27700
C2282       C  0.34332653  0.25868883  0.72317796     0.01900
C2283       C  0.34641109  0.27013475  0.75675393     0.30000
C2284       C  0.36873832  0.28079344  0.77409001    -0.19500
C2285       C  0.38836134  0.28046646  0.75824419    -0.28900
C2286       C  0.38483342  0.26792781  0.72563532     0.44000
C2287       C  0.32031990  0.24848840  0.70297555     0.05200
O2288       O  0.32800014  0.27185300  0.77216228    -0.57400
H2289       H  0.37104229  0.29052393  0.79886433     0.18100
O2290       O  0.40321512  0.26621234  0.71010213    -0.64200
H2291       H  0.36036784  0.24781158  0.68342792     0.16600
C2292       C  0.31919341  0.25568708  0.66742988     0.28800
C2293       C  0.29715799  0.24630375  0.64937647    -0.25100
C2294       C  0.27593324  0.22963624  0.66624637    -0.24300
C2295       C  0.27732330  0.22189240  0.70143191     0.40300
C2296       C  0.29926711  0.23126578  0.71929994    -0.26800
O2297       O  0.33935015  0.27296183  0.65093370    -0.58700
H2298       H  0.29657716  0.25285530  0.62277259     0.15900
O2299       O  0.25726923  0.20487481  0.71857167    -0.60100
H2300       H  0.29980504  0.22509373  0.74621764     0.14400
H2301       H  0.40756114  0.27639985  0.68833819     0.46200
H2302       H  0.34408985  0.26434046  0.63367468     0.41600
H2303       H  0.25306737  0.21366306  0.73634929     0.45000
H2304       H  0.32864001  0.28614322  0.76113938     0.36500
C2305       C  0.43319530  0.39729128  0.88007781    -0.27700
C2306       C  0.41333438  0.39755428  0.86537613     0.01900
C2307       C  0.40417320  0.38600186  0.83212336     0.30000
C2308       C  0.41434627  0.37373548  0.81490407    -0.19500
C2309       C  0.43353913  0.37255871  0.83060717    -0.28900
C2310       C  0.44328805  0.38504528  0.86305541     0.44000
C2311       C  0.40238187  0.40993634  0.88492616     0.05200
O2312       O  0.38475037  0.38587696  0.81686729    -0.57400
H2313       H  0.40645097  0.36414800  0.79023055     0.18100
O2314       O  0.46248165  0.38499776  0.87887193    -0.64200
H2315       H  0.44086798  0.40653632  0.90506954     0.16600
C2316       C  0.39423339  0.40402104  0.92077104     0.28800
C2317       C  0.38275565  0.41509619  0.93780513    -0.25100
C2318       C  0.37934211  0.43221756  0.91957316    -0.24300
C2319       C  0.38878378  0.43902977  0.88443390     0.40300
C2320       C  0.39997629  0.42784598  0.86746146    -0.26800
O2321       O  0.39595471  0.38629365  0.93847039    -0.58700
H2322       H  0.37545856  0.40939622  0.96454133     0.15900
O2323       O  0.38650452  0.45616750  0.86585513    -0.60100
H2324       H  0.40662261  0.43304657  0.84029197     0.14400
H2325       H  0.47665830  0.39816498  0.86711263     0.46200
H2326       H  0.40942004  0.39460969  0.95548401     0.41600
H2327       H  0.40059360  0.47145161  0.87281248     0.45000
H2328       H  0.37072017  0.37188721  0.82745606     0.36500
C2329       C  0.58917428  0.98761502  0.92326090    -0.27700
C2330       C  0.58638227  0.98942922  0.88590527     0.01900
C2331       C  0.57292816  0.96832044  0.86624516     0.30000
C2332       C  0.56338778  0.94619020  0.88325007    -0.19500
C2333       C  0.56670236  0.94414273  0.92031376    -0.28900
C2334       C  0.57944134  0.96525277  0.94046058     0.44000
C2335       C  0.59775892  0.01308558  0.86716596     0.05200
O2336       O  0.56907900  0.96903274  0.83008307    -0.57400
H2337       H  0.55350173  0.93041670  0.86690737     0.18100
O2338       O  0.58305563  0.96432302  0.97663995    -0.64200
H2339       H  0.59955397  0.00354498  0.93902762     0.16600
C2340       C  0.59521488  0.03221345  0.88012728     0.28800
C2341       C  0.60615316  0.05416381  0.86198501    -0.25100
C2342       C  0.61972505  0.05762911  0.83059114    -0.24300
C2343       C  0.62175835  0.03837180  0.81706459     0.40300
C2344       C  0.61108403  0.01649799  0.83544892    -0.26800
O2345       O  0.58161842  0.02948003  0.91002660    -0.58700
H2346       H  0.60446101  0.06878481  0.87303374     0.15900
O2347       O  0.63565804  0.04124518  0.78752746    -0.60100
H2348       H  0.61371663  0.00225835  0.82525148     0.14400
H2349       H  0.59805587  0.96366136  0.97855235     0.46200
H2350       H  0.59312532  0.03867601  0.92931142     0.41600
H2351       H  0.62451619  0.03592713  0.76682795     0.45000
H2352       H  0.55511101  0.97151035  0.82835848     0.36500
C2353       C  0.54123310  0.79196580  0.56867482    -0.27700
C2354       C  0.53465009  0.79153771  0.60464586     0.01900
C2355       C  0.52699105  0.80748579  0.61615482     0.30000
C2356       C  0.52517352  0.82296092  0.59118047    -0.19500
C2357       C  0.53049018  0.82226870  0.55468246    -0.28900
C2358       C  0.53931515  0.80710196  0.54390717     0.44000
C2359       C  0.53470567  0.77309280  0.62837404     0.05200
O2360       O  0.52155794  0.80821364  0.65164499    -0.57400
H2361       H  0.51872156  0.83474056  0.60004023     0.18100
O2362       O  0.54566070  0.80650597  0.50883744    -0.64200
H2363       H  0.54723758  0.77988954  0.55941781     0.16600
C2364       C  0.51322582  0.75425860  0.64164180     0.28800
C2365       C  0.51279775  0.73407489  0.65640540    -0.25100
C2366       C  0.53358405  0.73212448  0.65792982    -0.24300
C2367       C  0.55535115  0.75170193  0.64659368     0.40300
C2368       C  0.55571144  0.77181833  0.63181335    -0.26800
O2369       O  0.49228630  0.75473041  0.63829709    -0.58700
H2370       H  0.49589943  0.71951588  0.66539698     0.15900
O2371       O  0.57619068  0.75089815  0.64772947    -0.60100
H2372       H  0.57233304  0.78607429  0.62136917     0.14400
H2373       H  0.57046999  0.82720240  0.01113663     0.46200
H2374       H  0.48581912  0.74758700  0.61444352     0.41600
H2375       H  0.58347483  0.75794736  0.67127350     0.45000
H2376       H  0.50397815  0.80103289  0.65249230     0.36500
C2377       C  0.54890543  0.74793124  0.81942620    -0.27700
C2378       C  0.53715220  0.74247152  0.85270302     0.01900
C2379       C  0.52366953  0.71838433  0.86333291     0.30000
C2380       C  0.52107080  0.70022485  0.83987820    -0.19500
C2381       C  0.53168371  0.70588956  0.80577132    -0.28900
C2382       C  0.54622865  0.72990168  0.79606322     0.44000
C2383       C  0.53682922  0.76192789  0.87349384     0.05200
O2384       O  0.51213596  0.71239875  0.89584990    -0.57400
H2385       H  0.50975349  0.68179231  0.84751132     0.18100
O2386       O  0.55757713  0.73587626  0.76333031    -0.64200
H2387       H  0.55910269  0.76622708  0.81049311     0.16600
C2388       C  0.55793674  0.78335250  0.88086171     0.28800
C2389       C  0.55677141  0.80274849  0.89559241    -0.25100
C2390       C  0.53470103  0.80129780  0.90280006    -0.24300
C2391       C  0.51361305  0.77944421  0.89659429     0.40300
C2392       C  0.51484937  0.76010978  0.88214735    -0.26800
O2393       O  0.57976841  0.78535710  0.87406826    -0.58700
H2394       H  0.57322094  0.81911431  0.90066077     0.15900
O2395       O  0.49159136  0.77671396  0.90421701    -0.60100
H2396       H  0.49841193  0.74390802  0.87622887     0.14400
H2397       H  0.54759809  0.73990742  0.74772506     0.46200
H2398       H  0.58649919  0.79659804  0.85358689     0.41600
H2399       H  0.48572285  0.77958137  0.88111113     0.45000
H2400       H  0.52433282  0.71388881  0.91349340     0.36500
C2401       C  0.79150309  0.91734110  0.52439517    -0.27700
C2402       C  0.79467482  0.92161619  0.48741607     0.01900
C2403       C  0.80815473  0.94595728  0.97681436     0.30000
C2404       C  0.80259190  0.96216491  0.49762444    -0.19500
C2405       C  0.80081961  0.95824791  0.53497432    -0.28900
C2406       C  0.79443296  0.93529489  0.54807563     0.44000
C2407       C  0.79859859  0.90341112  0.96663233     0.05200
O2408       O  0.81729732  0.95207666  0.94271291    -0.57400
H2409       H  0.81834016  0.98204201  0.99151779     0.18100
O2410       O  0.79147323  0.93027266  0.58421076    -0.64200
H2411       H  0.78749805  0.90014596  0.53509935     0.16600
C2412       C  0.82025180  0.90337469  0.96270927     0.28800
C2413       C  0.82063411  0.88397543  0.94662729    -0.25100
C2414       C  0.79950955  0.86405115  0.93453601    -0.24300
C2415       C  0.77786828  0.86444150  0.93768853     0.40300
C2416       C  0.77755035  0.88396583  0.95377151    -0.26800
O2417       O  0.83757544  0.92541980  0.45984259    -0.58700
H2418       H  0.83754972  0.88431004  0.94461839     0.15900
O2419       O  0.75691557  0.84589265  0.92525961    -0.60100
H2420       H  0.76072685  0.88370448  0.95695231     0.14400
H2421       H  0.77477206  0.92605741  0.58945293     0.46200
H2422       H  0.84284738  0.92330582  0.48396125     0.41600
H2423       H  0.74945039  0.83555471  0.94649192     0.45000
H2424       H  0.83471871  0.95861241  0.94544523     0.36500
C2425       C  0.82462509  0.92064065  0.71088449    -0.27700
C2426       C  0.80329683  0.89940163  0.71647121     0.01900
C2427       C  0.78167587  0.89774543  0.70537183     0.30000
C2428       C  0.78154296  0.91739198  0.68956621    -0.19500
C2429       C  0.80284949  0.93902711  0.68486335    -0.28900
C2430       C  0.82457402  0.94039324  0.69554431     0.44000
C2431       C  0.80362530  0.88044867  0.73837368     0.05200
O2432       O  0.76051964  0.87719128  0.71084576    -0.57400
H2433       H  0.76465873  0.91578220  0.68157943     0.18100
O2434       O  0.84589072  0.96107265  0.69196362    -0.64200
H2435       H  0.84133044  0.92226596  0.71997367     0.16600
C2436       C  0.81508932  0.86788865  0.72662712     0.28800
C2437       C  0.81694462  0.85166008  0.74982713    -0.25100
C2438       C  0.80821518  0.84856451  0.78515257    -0.24300
C2439       C  0.79647023  0.86095979  0.79650239     0.40300
C2440       C  0.79400564  0.87647453  0.77305499    -0.26800
O2441       O  0.82446968  0.87137634  0.69261999    -0.58700
H2442       H  0.82607332  0.84232645  0.74078801     0.15900
O2443       O  0.78711138  0.85782361  0.83053929    -0.60100
H2444       H  0.78529469  0.88614547  0.78247196     0.14400
H2445       H  0.84822852  0.96961047  0.71508565     0.46200
H2446       H  0.84159053  0.88324191  0.69543005     0.41600
H2447       H  0.79888906  0.87175098  0.84453645     0.45000
H2448       H  0.75818856  0.86744609  0.68903566     0.36500
C2449       C  0.73918692  0.06269020  0.66650990    -0.27700
C2450       C  0.74603219  0.07054590  0.70213204     0.01900
C2451       C  0.76359810  0.06691277  0.71855013     0.30000
C2452       C  0.77326204  0.05477540  0.70016963    -0.19500
C2453       C  0.76577019  0.04596143  0.66509305    -0.28900
C2454       C  0.74900842  0.05058729  0.64791928     0.44000
C2455       C  0.73451361  0.08209246  0.72225669     0.05200
O2456       O  0.77113574  0.07476148  0.75290242    -0.57400
H2457       H  0.78633209  0.05170674  0.71390213     0.18100
O2458       O  0.74083391  0.04192508  0.61412360    -0.64200
H2459       H  0.72558172  0.06523288  0.65348932     0.16600
C2460       C  0.73450539  0.10231581  0.70835033     0.28800
C2461       C  0.72269274  0.11233705  0.72677486    -0.25100
C2462       C  0.71046500  0.10242027  0.75915243    -0.24300
C2463       C  0.71123206  0.08272438  0.77390344     0.40300
C2464       C  0.72314920  0.07267536  0.75540796    -0.26800
O2465       O  0.74633077  0.11263505  0.67699353    -0.58700
H2466       H  0.72255124  0.12764209  0.71506714     0.15900
O2467       O  0.69897563  0.07210196  0.80481240    -0.60100
H2468       H  0.72288181  0.05701245  0.76642044     0.14400
H2469       H  0.75103287  0.05507965  0.59753626     0.46200
H2470       H  0.73372364  0.10805678  0.65851227     0.41600
H2471       H  0.71098290  0.07879004  0.82433462     0.45000
H2472       H  0.78430301  0.09135958  0.75011883     0.36500
C2473       C  0.65362115  0.92353091  0.50045664    -0.27700
C2474       C  0.65484829  0.91394773  0.53391424     0.01900
C2475       C  0.63432616  0.89408861  0.54740249     0.30000
C2476       C  0.61278980  0.88488902  0.52856777    -0.19500
C2477       C  0.61149080  0.89574500  0.99571591    -0.28900
C2478       C  0.63201643  0.91575070  0.98249326     0.44000
C2479       C  0.67736431  0.92529827  0.55504484     0.05200
O2480       O  0.63497129  0.88394635  0.57950725    -0.57400
H2481       H  0.59697824  0.87015626  0.54019215     0.18100
O2482       O  0.63082234  0.92743502  0.95243682    -0.64200
H2483       H  0.66877681  0.94127533  0.99227498     0.16600
C2484       C  0.69844220  0.92744538  0.54055598     0.28800
C2485       C  0.71996078  0.94011901  0.55920037    -0.25100
C2486       C  0.72107393  0.95113652  0.59235745    -0.24300
C2487       C  0.69976534  0.94788364  0.60792347     0.40300
C2488       C  0.67809840  0.93504390  0.58923097    -0.26800
O2489       O  0.69865813  0.92089652  0.00662256    -0.58700
H2490       H  0.73611024  0.94217219  0.54690622     0.15900
O2491       O  0.70016894  0.95882298  0.63971583    -0.60100
H2492       H  0.66199151  0.93357038  0.60072901     0.14400
H2493       H  0.63632705  0.92122035  0.93239353     0.46200
H2494       H  0.70462197  0.93457329  0.98981995     0.41600
H2495       H  0.69746803  0.94692380  0.65864488     0.45000
H2496       H  0.64102968  0.87292764  0.57348907     0.36500
C2497       C  0.56562607  0.11685116  0.69882752    -0.27700
C2498       C  0.56360823  0.13753570  0.69975513     0.01900
C2499       C  0.58026576  0.15716578  0.71997599     0.30000
C2500       C  0.59902038  0.15623446  0.73757348    -0.19500
C2501       C  0.60164283  0.13588947  0.73558359    -0.28900
C2502       C  0.58442879  0.11592469  0.71640286     0.44000
C2503       C  0.54455225  0.13869747  0.67864873     0.05200
O2504       O  0.57785498  0.17703119  0.72363882    -0.57400
H2505       H  0.61167680  0.17166078  0.75269361     0.18100
O2506       O  0.58604067  0.09558991  0.71388449    -0.64200
H2507       H  0.55294264  0.10155380  0.68350429     0.16600
C2508       C  0.55023752  0.15712154  0.65363414     0.28800
C2509       C  0.53222314  0.15799154  0.63393154    -0.25100
C2510       C  0.50820624  0.14016986  0.63740159    -0.24300
C2511       C  0.50256480  0.12130964  0.66176304     0.40300
C2512       C  0.52062112  0.12085037  0.68236442    -0.26800
O2513       O  0.57349180  0.17393814  0.64714353    -0.58700
H2514       H  0.53735324  0.17231494  0.61470553     0.15900
O2515       O  0.47957489  0.10313469  0.66554612    -0.60100
H2516       H  0.51593384  0.10635086  0.70110160     0.14400
H2517       H  0.59571566  0.09773815  0.69201331     0.46200
H2518       H  0.57897921  0.16702153  0.62808014     0.41600
H2519       H  0.47817085  0.09048647  0.64894878     0.45000
H2520       H  0.59209322  0.19016994  0.71192857     0.36500
C2521       C  0.60221354  0.11927191  0.94351368    -0.27700
C2522       C  0.58956268  0.13168885  0.94086768     0.01900
C2523       C  0.59659485  0.15010290  0.91555465     0.30000
C2524       C  0.61538074  0.15523536  0.89206629    -0.19500
C2525       C  0.62746613  0.14216535  0.89329632    -0.28900
C2526       C  0.62121656  0.12449740  0.92000311     0.44000
C2527       C  0.56779178  0.12452302  0.96214567     0.05200
O2528       O  0.58482372  0.16288248  0.91319555    -0.57400
H2529       H  0.62002668  0.16903876  0.87204456     0.18100
O2530       O  0.63226638  0.11102680  0.92156912    -0.64200
H2531       H  0.59678151  0.10496444  0.96285536     0.16600
C2532       C  0.54542378  0.11202795  0.94539676     0.28800
C2533       C  0.52531188  0.11046760  0.96207813    -0.25100
C2534       C  0.52711052  0.12127306  0.99565044    -0.24300
C2535       C  0.54923355  0.13178173  0.01391139     0.40300
C2536       C  0.56941203  0.13339921  0.99698518    -0.26800
O2537       O  0.54339605  0.10290141  0.91144740    -0.58700
H2538       H  0.50854197  0.10191771  0.94766294     0.15900
O2539       O  0.55154172  0.14116586  0.04773747    -0.60100
H2540       H  0.58658156  0.14282717  0.01020010     0.14400
H2541       H  0.64523667  0.11912047  0.93942520     0.46200
H2542       H  0.54263942  0.08732955  0.91497999     0.41600
H2543       H  0.55831267  0.15852388  0.04405859     0.45000
H2544       H  0.57272546  0.15497529  0.89404736     0.36500
C2545       C  0.48631174  0.19675455  0.89606950    -0.27700
C2546       C  0.46756713  0.20192049  0.89965693     0.01900
C2547       C  0.44869247  0.18778121  0.92342305     0.30000
C2548       C  0.44912929  0.16961761  0.94356191    -0.19500
C2549       C  0.46861101  0.16564412  0.94168574    -0.28900
C2550       C  0.48716931  0.17918106  0.91738578     0.44000
C2551       C  0.46842870  0.22283814  0.88052079     0.05200
O2552       O  0.43029578  0.19235638  0.92874312    -0.57400
H2553       H  0.43218167  0.15403941  0.44852355     0.18100
O2554       O  0.50612205  0.17523719  0.91411018    -0.64200
H2555       H  0.50067704  0.20676103  0.87730725     0.16600
C2556       C  0.48911807  0.24546275  0.88125973     0.28800
C2557       C  0.48887541  0.26529099  0.86618001    -0.25100
C2558       C  0.46821167  0.26330948  0.85011335    -0.24300
C2559       C  0.44776639  0.24055254  0.84823365     0.40300
C2560       C  0.44803816  0.22066381  0.86313828    -0.26800
O2561       O  0.50926591  0.24875180  0.89871193    -0.58700
H2562       H  0.50487580  0.28248635  0.86803305     0.15900
O2563       O  0.42729631  0.23747454  0.83218153    -0.60100
H2564       H  0.43208008  0.20343903  0.86136334     0.14400
H2565       H  0.51875398  0.18733033  0.92969408     0.46200
H2566       H  0.52086357  0.25118459  0.87939135     0.41600
H2567       H  0.42921691  0.23517482  0.80627124     0.45000
H2568       H  0.43585658  0.20453505  0.94803341     0.36500
C2569       C  0.49017104  0.26517209  0.66918274    -0.27700
C2570       C  0.47160483  0.25707648  0.64402665     0.01900
C2571       C  0.45644617  0.26697422  0.64403008     0.30000
C2572       C  0.45974281  0.28443935  0.66940995    -0.19500
C2573       C  0.47758936  0.29169433  0.69580539    -0.28900
C2574       C  0.49307650  0.28209061  0.69515587     0.44000
C2575       C  0.46732418  0.23701503  0.62002357     0.05200
O2576       O  0.43798768  0.25922543  0.61998741    -0.57400
H2577       H  0.44775474  0.29165427  0.66932078     0.18100
O2578       O  0.51128243  0.28929246  0.71960510    -0.64200
H2579       H  0.50194688  0.25767374  0.66953644     0.16600
C2580       C  0.48428373  0.23932995  0.59417326     0.28800
C2581       C  0.48170205  0.21918710  0.57585889    -0.25100
C2582       C  0.46258267  0.19644060  0.58366935    -0.24300
C2583       C  0.44483313  0.19445904  0.60795253     0.40300
C2584       C  0.44730161  0.21463178  0.62584343    -0.26800
O2585       O  0.50366110  0.26116524  0.58716945    -0.58700
H2586       H  0.49548609  0.22121215  0.55721092     0.15900
O2587       O  0.42549915  0.17272994  0.61564807    -0.60100
H2588       H  0.43410720  0.21260284  0.64566340     0.14400
H2589       H  0.50542087  0.27655484  0.73807274     0.46200
H2590       H  0.51680081  0.26174385  0.60177426     0.41600
H2591       H  0.41352510  0.17028940  0.59695738     0.45000
H2592       H  0.44491702  0.26923368  0.59827275     0.36500
C2593       C  0.30556466  0.07936569  0.94967840    -0.27700
C2594       C  0.32444713  0.07629580  0.93757686     0.01900
C2595       C  0.32119491  0.06280197  0.90602465     0.30000
C2596       C  0.29876491  0.05083768  0.88929103    -0.19500
C2597       C  0.27925256  0.05199612  0.90366645    -0.28900
C2598       C  0.28307913  0.06724274  0.93316266     0.44000
C2599       C  0.34592529  0.08405492  0.96078838     0.05200
O2600       O  0.33948657  0.06006632  0.89254027    -0.57400
H2601       H  0.29625241  0.03930858  0.86660283     0.18100
O2602       O  0.26471055  0.06996770  0.94642751    -0.64200
H2603       H  0.30771268  0.08983774  0.97356861     0.16600
C2604       C  0.36064944  0.10658316  0.46752070     0.28800
C2605       C  0.38060960  0.11392240  0.49014999    -0.25100
C2606       C  0.38598552  0.09714539  0.50516013    -0.24300
C2607       C  0.37158518  0.07294157  0.99391789     0.40300
C2608       C  0.35193536  0.06692938  0.97173848    -0.26800
O2609       O  0.35625809  0.12336675  0.45224161    -0.58700
H2610       H  0.39250559  0.13274623  0.49449549     0.15900
O2611       O  0.37659278  0.05539831  0.00385521    -0.60100
H2612       H  0.34123466  0.04861685  0.96308979     0.14400
H2613       H  0.26252770  0.06434344  0.97168340     0.46200
H2614       H  0.36586697  0.12831259  0.42985741     0.41600
H2615       H  0.38400852  0.05258855  0.98239044     0.45000
H2616       H  0.34871877  0.07415396  0.87697112     0.36500
C2617       C  0.20913814  0.06172448  0.52675759    -0.27700
C2618       C  0.19828456  0.07753790  0.01831058     0.01900
C2619       C  0.17997847  0.06860444  0.99254517     0.30000
C2620       C  0.17708100  0.05030124  0.96946048    -0.19500
C2621       C  0.19186828  0.04004038  0.97205504    -0.28900
C2622       C  0.20908816  0.04782485  0.99968953     0.44000
C2623       C  0.20048438  0.09431377  0.54500827     0.05200
O2624       O  0.16564528  0.07859247  0.98842055    -0.57400
H2625       H  0.16349682  0.04449306  0.94879871     0.18100
O2626       O  0.21871390  0.03181871  0.50852659    -0.64200
H2627       H  0.22033036  0.06536272  0.55027564     0.16600
C2628       C  0.18089314  0.09248292  0.56426242     0.28800
C2629       C  0.18161478  0.11290176  0.57829163    -0.25100
C2630       C  0.20192663  0.13542026  0.57403326    -0.24300
C2631       C  0.22247836  0.13682992  0.55812430     0.40300
C2632       C  0.22153799  0.11635728  0.54337165    -0.26800
O2633       O  0.16030304  0.07103492  0.56719153    -0.58700
H2634       H  0.16585484  0.11119218  0.59144024     0.15900
O2635       O  0.24289195  0.15831518  0.55416845    -0.60100
H2636       H  0.23259465  0.12306316  0.00687329     0.14400
H2637       H  0.21587104  0.02579549  0.02285765     0.46200
H2638       H  0.16328717  0.06255979  0.58701573     0.41600
H2639       H  0.25323269  0.15922478  0.57454065     0.45000
H2640       H  0.15142522  0.06877030  0.00349784     0.36500
C2641       C  0.17879724  0.08936035  0.81051705    -0.27700
C2642       C  0.19904817  0.10698395  0.79307506     0.01900
C2643       C  0.21996849  0.10531441  0.79247507     0.30000
C2644       C  0.22008963  0.08551216  0.80769368    -0.19500
C2645       C  0.19926081  0.06686603  0.82287485    -0.28900
C2646       C  0.17871220  0.06938209  0.82527449     0.44000
C2647       C  0.19632599  0.12332482  0.76830998     0.05200
O2648       O  0.23999788  0.12238159  0.77542471    -0.57400
H2649       H  0.23615742  0.08419270  0.80584586     0.18100
O2650       O  0.15826252  0.05223172  0.84133711    -0.64200
H2651       H  0.16249956  0.09033985  0.81064144     0.16600
C2652       C  0.18981122  0.11604487  0.73265053     0.28800
C2653       C  0.18696192  0.13084725  0.70846168    -0.25100
C2654       C  0.19037410  0.15328235  0.71898680    -0.24300
C2655       C  0.19664166  0.16051831  0.75508822     0.40300
C2656       C  0.19957828  0.14548618  0.77956581    -0.26800
O2657       O  0.18657901  0.09449287  0.72098605    -0.58700
H2658       H  0.18223779  0.12459401  0.68104361     0.15900
O2659       O  0.20033666  0.18223440  0.76659068    -0.60100
H2660       H  0.20446988  0.15112673  0.80718261     0.14400
H2661       H  0.14785696  0.04256280  0.82126706     0.46200
H2662       H  0.16955574  0.08299557  0.72567419     0.41600
H2663       H  0.18448289  0.17938670  0.77462102     0.45000
H2664       H  0.23881888  0.11659482  0.75038508     0.36500
C2665       C  0.42764830  0.84991576  0.52532415    -0.27700
C2666       C  0.43064833  0.87070443  0.54170009     0.01900
C2667       C  0.45319739  0.89138183  0.54075717     0.30000
C2668       C  0.47271928  0.89063739  0.52563353    -0.19500
C2669       C  0.47014479  0.86929962  0.51166282    -0.28900
C2670       C  0.44712966  0.84900985  0.51058091     0.44000
C2671       C  0.41157438  0.86922725  0.56546049     0.05200
O2672       O  0.45658434  0.91204307  0.55638850    -0.57400
H2673       H  0.49009156  0.90647975  0.52644166     0.18100
O2674       O  0.44440493  0.82542632  0.00872876    -0.64200
H2675       H  0.41042952  0.83385381  0.52603072     0.16600
C2676       C  0.38857442  0.86276421  0.55275163     0.28800
C2677       C  0.37034235  0.85882559  0.57723318    -0.25100
C2678       C  0.37475139  0.86077102  0.61445374    -0.24300
C2679       C  0.39805922  0.86778676  0.62678378     0.40300
C2680       C  0.41612093  0.87207494  0.60239147    -0.26800
O2681       O  0.38366038  0.85977917  0.51664234    -0.58700
H2682       H  0.35264540  0.85351641  0.56722317     0.15900
O2683       O  0.40354551  0.87084592  0.66278031    -0.60100
H2684       H  0.43367208  0.87684378  0.61255486     0.14400
H2685       H  0.44625824  0.81780989  0.03076143     0.46200
H2686       H  0.38791449  0.87582560  0.50753870     0.41600
H2687       H  0.40375450  0.85623239  0.67044681     0.45000
H2688       H  0.45115448  0.91954795  0.53817512     0.36500
C2689       C  0.45658754  0.87129456  0.85346854    -0.27700
C2690       C  0.45796020  0.86762137  0.81667941     0.01900
C2691       C  0.47565494  0.86260685  0.80414213     0.30000
C2692       C  0.49111168  0.86047088  0.82879449    -0.19500
C2693       C  0.48878812  0.86295516  0.86592296    -0.28900
C2694       C  0.47179271  0.86921508  0.87788151     0.44000
C2695       C  0.43971601  0.86804735  0.79290929     0.05200
O2696       O  0.47819922  0.86024021  0.76798183    -0.57400
H2697       H  0.50433291  0.85614404  0.81900056     0.18100
O2698       O  0.46953034  0.87299464  0.91365285    -0.64200
H2699       H  0.44316053  0.87526627  0.86353717     0.16600
C2700       C  0.42286436  0.84734277  0.77499818     0.28800
C2701       C  0.40262219  0.84647053  0.75958266    -0.25100
C2702       C  0.39862504  0.86596436  0.76210184    -0.24300
C2703       C  0.41607856  0.88703681  0.77870292     0.40300
C2704       C  0.43639715  0.88794818  0.79374442    -0.26800
O2705       O  0.42525129  0.82739033  0.77426738    -0.58700
H2706       H  0.38960081  0.83015497  0.74668908     0.15900
O2707       O  0.41299224  0.90649317  0.78200088    -0.60100
H2708       H  0.44906040  0.90389897  0.80784868     0.14400
H2709       H  0.48191544  0.88971792  0.91828039     0.46200
H2710       H  0.41728220  0.81846012  0.79644085     0.41600
H2711       H  0.40450848  0.90423974  0.80517569     0.45000
H2712       H  0.47275274  0.84311743  0.76420722     0.36500
C2713       C  0.26384193  0.89890702  0.79590468    -0.27700
C2714       C  0.26406965  0.91871830  0.77998470     0.01900
C2715       C  0.27486951  0.92627138  0.74578710     0.30000
C2716       C  0.28553223  0.91437527  0.72860947    -0.19500
C2717       C  0.28584987  0.89494980  0.74504147    -0.28900
C2718       C  0.27443256  0.88705239  0.77881858     0.44000
C2719       C  0.25318268  0.93140448  0.79944833     0.05200
O2720       O  0.27672235  0.94639616  0.73025676    -0.57400
H2721       H  0.29472907  0.92122681  0.70329901     0.18100
O2722       O  0.27413827  0.86811871  0.79604854    -0.64200
H2723       H  0.25552316  0.89266188  0.82194841     0.16600
C2724       C  0.23533525  0.93471033  0.78316726     0.28800
C2725       C  0.22591604  0.94733529  0.80113891    -0.25100
C2726       C  0.23391642  0.95716776  0.83560196    -0.24300
C2727       C  0.25095038  0.95285473  0.85274891     0.40300
C2728       C  0.26042061  0.94010649  0.83470457    -0.26800
O2729       O  0.22635791  0.92489430  0.75012123    -0.58700
H2730       H  0.21236788  0.94969908  0.78759415     0.15900
O2731       O  0.25940699  0.96201124  0.88622948    -0.60100
H2732       H  0.27393603  0.93752824  0.84796277     0.14400
H2733       H  0.26066842  0.85377104  0.78514355     0.46200
H2734       H  0.23033987  0.93850922  0.73378814     0.41600
H2735       H  0.24870526  0.94948629  0.90332440     0.45000
H2736       H  0.26749940  0.94103705  0.70754434     0.36500
C2737       C  0.40255615  0.98319471  0.68059933    -0.27700
C2738       C  0.40724841  0.98615909  0.64335766     0.01900
C2739       C  0.39898129  0.96573662  0.62170504     0.30000
C2740       C  0.38535179  0.94312616  0.63680025    -0.19500
C2741       C  0.37914338  0.94011478  0.67356058    -0.28900
C2742       C  0.38858744  0.96046537  0.69571342     0.44000
C2743       C  0.41802904  0.01027074  0.62652649     0.05200
O2744       O  0.40297560  0.96763961  0.58529087    -0.57400
H2745       H  0.37880841  0.92787399  0.61907208     0.18100
O2746       O  0.38321122  0.95856518  0.73166833    -0.64200
H2747       H  0.40905021  0.99864223  0.69788713     0.16600
C2748       C  0.40812603  0.02501816  0.63321146     0.28800
C2749       C  0.41610550  0.04620563  0.61407101    -0.25100
C2750       C  0.43407955  0.05348368  0.58770275    -0.24300
C2751       C  0.44461673  0.03914947  0.58175856     0.40300
C2752       C  0.43664211  0.01780206  0.60118231    -0.26800
O2753       O  0.38939173  0.01808246  0.65661422    -0.58700
H2754       H  0.40758739  0.05671885  0.61958865     0.15900
O2755       O  0.46265809  0.04574242  0.55722046    -0.60100
H2756       H  0.44472468  0.00685889  0.59593318     0.14400
H2757       H  0.39624624  0.95729495  0.74373947     0.46200
H2758       H  0.39623191  0.02817626  0.67825885     0.41600
H2759       H  0.45466195  0.03786795  0.53444124     0.45000
H2760       H  0.38963517  0.96912601  0.57478286     0.36500
C2761       C  0.93711681  0.78922575  0.77127590    -0.27700
C2762       C  0.92397531  0.80092320  0.76509200     0.01900
C2763       C  0.93010364  0.81681322  0.73613584     0.30000
C2764       C  0.94883768  0.82063075  0.71341150    -0.19500
C2765       C  0.96179292  0.80859038  0.71862033    -0.28900
C2766       C  0.95605564  0.79305076  0.74829907     0.44000
C2767       C  0.90374398  0.79691660  0.78835924     0.05200
O2768       O  0.91765407  0.82858357  0.72963843    -0.57400
H2769       H  0.95287865  0.83277535  0.69100880     0.18100
O2770       O  0.96787503  0.78058049  0.75394603    -0.64200
H2771       H  0.93248641  0.77692997  0.79359020     0.16600
C2772       C  0.88038373  0.77913499  0.77997596     0.28800
C2773       C  0.86088191  0.77898456  0.79700977    -0.25100
C2774       C  0.86441199  0.79668485  0.82212262    -0.24300
C2775       C  0.88793976  0.81358246  0.83199089     0.40300
C2776       C  0.90733607  0.81364893  0.81502937    -0.26800
O2777       O  0.87642001  0.76301339  0.75318851    -0.58700
H2778       H  0.84299852  0.76588167  0.78899090     0.15900
O2779       O  0.89221355  0.83073035  0.85720013    -0.60100
H2780       H  0.92524420  0.82753215  0.82144884     0.14400
H2781       H  0.98052659  0.79012987  0.77162355     0.46200
H2782       H  0.87534465  0.74893961  0.76562572     0.41600
H2783       H  0.89135742  0.82309712  0.88072924     0.45000
H2784       H  0.90440641  0.81794945  0.71349085     0.36500
C2785       C  0.89467029  0.77741312  0.54661695    -0.27700
C2786       C  0.89416300  0.79862676  0.54053939     0.01900
C2787       C  0.91398990  0.82035265  0.55071192     0.30000
C2788       C  0.93429138  0.82073469  0.56494044    -0.19500
C2789       C  0.93546434  0.79964206  0.56903304    -0.28900
C2790       C  0.91507314  0.77776418  0.56049023     0.44000
C2791       C  0.87515242  0.79631334  0.01818625     0.05200
O2792       O  0.91418330  0.84145336  0.54524129    -0.57400
H2793       H  0.94947724  0.83779231  0.57171668     0.18100
O2794       O  0.91496600  0.75662755  0.56479524    -0.64200
H2795       H  0.87703506  0.76068845  0.05446644     0.16600
C2796       C  0.86676028  0.78262266  0.98669319     0.28800
C2797       C  0.85095475  0.78536850  0.96419615    -0.25100
C2798       C  0.84266765  0.80112942  0.97306053    -0.24300
C2799       C  0.84976649  0.81370696  0.00571251     0.40300
C2800       C  0.86146536  0.80887556  0.53095329    -0.26800
O2801       O  0.87563937  0.76820036  0.97597075    -0.58700
H2802       H  0.84599167  0.77595075  0.93876696     0.15900
O2803       O  0.83327112  0.82232417  0.52023616    -0.60100
H2804       H  0.86418329  0.81597403  0.55800470     0.14400
H2805       H  0.91950002  0.75318431  0.54097058     0.46200
H2806       H  0.86371443  0.75201285  0.98410589     0.41600
H2807       H  0.85433998  0.84497087  0.00444426     0.45000
H2808       H  0.92005622  0.84624898  0.52028705     0.36500
C2809       C  0.05969244  0.86084823  0.47133176    -0.27700
C2810       C  0.08196764  0.87732316  0.48590334     0.01900
C2811       C  0.08791788  0.87604581  0.02956686     0.30000
C2812       C  0.06659331  0.86282550  0.54555084    -0.19500
C2813       C  0.04409055  0.84668730  0.53141674    -0.28900
C2814       C  0.04084998  0.84530590  0.49385288     0.44000
C2815       C  0.10418842  0.89469442  0.96947833     0.05200
O2816       O  0.10865758  0.89269528  0.04558681    -0.57400
H2817       H  0.06966042  0.86414705  0.57434822     0.18100
O2818       O  0.01912867  0.82996267  0.47907954    -0.64200
H2819       H  0.05682985  0.86035183  0.44255359     0.16600
C2820       C  0.12773327  0.89862692  0.96871054     0.28800
C2821       C  0.14586436  0.91885833  0.95145667    -0.25100
C2822       C  0.14095960  0.93553073  0.93474388    -0.24300
C2823       C  0.11705159  0.93079729  0.93406539     0.40300
C2824       C  0.09905500  0.91063675  0.95130473    -0.26800
O2825       O  0.12867318  0.88207206  0.48018723    -0.58700
H2826       H  0.16392360  0.92184567  0.95212281     0.15900
O2827       O  0.11104842  0.94608599  0.91747897    -0.60100
H2828       H  0.08108457  0.90792995  0.95163126     0.14400
H2829       H  0.01976546  0.81521317  0.47395264     0.46200
H2830       H  0.12571800  0.86981003  0.46179846     0.41600
H2831       H  0.10629542  0.93979883  0.89272022     0.45000
H2832       H  0.11656743  0.88376056  0.05410355     0.36500
C2833       C  0.10344728  0.88322209  0.71423640    -0.27700
C2834       C  0.10630141  0.90592244  0.70808957     0.01900
C2835       C  0.09034602  0.90835668  0.68511393     0.30000
C2836       C  0.07107866  0.88815142  0.67015633    -0.19500
C2837       C  0.06726660  0.86522378  0.67796160    -0.28900
C2838       C  0.08412643  0.86292083  0.69928507     0.44000
C2839       C  0.12238806  0.92591048  0.73158030     0.05200
O2840       O  0.09290419  0.93037892  0.67838581    -0.57400
H2841       H  0.05860085  0.89039728  0.65334330     0.18100
O2842       O  0.08117726  0.84091907  0.70744241    -0.64200
H2843       H  0.11540777  0.88112148  0.73243751     0.16600
C2844       C  0.11316346  0.92989318  0.76335498     0.28800
C2845       C  0.12803694  0.94791560  0.78688006    -0.25100
C2846       C  0.15248453  0.96237702  0.77960968    -0.24300
C2847       C  0.16166232  0.95892773  0.74701205     0.40300
C2848       C  0.14657423  0.94066819  0.72323572    -0.26800
O2849       O  0.08949505  0.91603393  0.77178585    -0.58700
H2850       H  0.12033818  0.95025016  0.81139723     0.15900
O2851       O  0.18526528  0.97293168  0.73842419    -0.60100
H2852       H  0.15378745  0.93783460  0.69859245     0.14400
H2853       H  0.07151722  0.83597129  0.72980036     0.46200
H2854       H  0.08850827  0.90253176  0.78586112     0.41600
H2855       H  0.19286379  0.96327448  0.74459488     0.45000
H2856       H  0.08270397  0.93237586  0.69643808     0.36500
C2857       C  0.06849038  0.74666483  0.58765984    -0.27700
C2858       C  0.07611574  0.75289104  0.55175669     0.01900
C2859       C  0.07220148  0.77012792  0.53474921     0.30000
C2860       C  0.05926431  0.77930242  0.55223994    -0.19500
C2861       C  0.05014810  0.77191574  0.58722626    -0.28900
C2862       C  0.05582073  0.75621826  0.60550699     0.44000
C2863       C  0.08652179  0.74022291  0.53133258     0.05200
O2864       O  0.08032352  0.77762319  0.50047493    -0.57400
H2865       H  0.05572769  0.79181125  0.53778260     0.18100
O2866       O  0.04758855  0.74868498  0.63969979    -0.64200
H2867       H  0.07134742  0.73348590  0.60137455     0.16600
C2868       C  0.10579519  0.73820299  0.54498442     0.28800
C2869       C  0.11562651  0.72614245  0.02642519    -0.25100
C2870       C  0.10524600  0.71478403  0.99369202    -0.24300
C2871       C  0.08475128  0.71582992  0.47950475     0.40300
C2872       C  0.07642372  0.72922612  0.49821260    -0.26800
O2873       O  0.11688063  0.74953470  0.57626352    -0.58700
H2874       H  0.13030230  0.72462335  0.03776148     0.15900
O2875       O  0.07330262  0.70407998  0.44872337    -0.60100
H2876       H  0.06138892  0.73030616  0.48739908     0.14400
H2877       H  0.06023556  0.76031676  0.65577894     0.46200
H2878       H  0.11252614  0.73650649  0.09520884     0.41600
H2879       H  0.08368497  0.71842081  0.92878994     0.45000
H2880       H  0.09648027  0.79177574  0.00793135     0.36500
C2881       C  0.23340244  0.77988039  0.60916971    -0.27700
C2882       C  0.22909055  0.75713693  0.61932118     0.01900
C2883       C  0.24367918  0.75513193  0.64560625     0.30000
C2884       C  0.26267513  0.77562366  0.66052431    -0.19500
C2885       C  0.26750429  0.79846925  0.64975175    -0.28900
C2886       C  0.25251985  0.80046523  0.62401523     0.44000
C2887       C  0.21136042  0.73587808  0.59921491     0.05200
O2888       O  0.23994273  0.73318800  0.65606438    -0.57400
H2889       H  0.27394775  0.77363441  0.68024672     0.18100
O2890       O  0.25715085  0.82235726  0.61173661    -0.64200
H2891       H  0.22259403  0.78168272  0.58842135     0.16600
C2892       C  0.18673031  0.72790667  0.60091737     0.28800
C2893       C  0.17082496  0.70941372  0.57827769    -0.25100
C2894       C  0.17931680  0.69893694  0.55347935    -0.24300
C2895       C  0.20385949  0.70619237  0.55323554     0.40300
C2896       C  0.21956296  0.72431411  0.57618865    -0.26800
O2897       O  0.17816587  0.73860856  0.62371318    -0.58700
H2898       H  0.15208998  0.70423038  0.57865661     0.15900
O2899       O  0.21318494  0.69749845  0.03469971    -0.60100
H2900       H  0.23842810  0.73009742  0.57484025     0.14400
H2901       H  0.26746315  0.82551845  0.59030977     0.46200
H2902       H  0.17579316  0.73028659  0.64705490     0.41600
H2903       H  0.22141040  0.70907217  0.01501063     0.45000
H2904       H  0.22866032  0.72850602  0.67653979     0.36500
C2905       C  0.24188251  0.75506252  0.89818664    -0.27700
C2906       C  0.23920882  0.77183803  0.87786155     0.01900
C2907       C  0.21656896  0.76984250  0.87466693     0.30000
C2908       C  0.19663114  0.75014929  0.88955331    -0.19500
C2909       C  0.19902672  0.73220703  0.90731205    -0.28900
C2910       C  0.22204936  0.73529670  0.91271308     0.44000
C2911       C  0.25877588  0.78757111  0.85368824     0.05200
O2912       O  0.21344256  0.78573161  0.85411261    -0.57400
H2913       H  0.17914574  0.74820021  0.88523978     0.18100
O2914       O  0.22534775  0.71883753  0.93145653    -0.64200
H2915       H  0.25927595  0.75647589  0.90072965     0.16600
C2916       C  0.27133850  0.81247081  0.85737831     0.28800
C2917       C  0.28908305  0.82638620  0.83229669    -0.25100
C2918       C  0.29418767  0.81561252  0.80330941    -0.24300
C2919       C  0.28182253  0.79056462  0.80045214     0.40300
C2920       C  0.26447789  0.77686376  0.82562639    -0.26800
O2921       O  0.26614836  0.82330975  0.88487712    -0.58700
H2922       H  0.29826028  0.84558481  0.83481073     0.15900
O2923       O  0.28668123  0.77920142  0.77328892    -0.60100
H2924       H  0.25497510  0.75766764  0.82273815     0.14400
H2925       H  0.22757066  0.70908469  0.91286673     0.46200
H2926       H  0.27590578  0.82330127  0.90549315     0.41600
H2927       H  0.27368755  0.77469671  0.75549869     0.45000
H2928       H  0.21508058  0.79827031  0.87110865     0.36500
C2929       C  0.92649577  0.65506759  0.74891398    -0.27700
C2930       C  0.91733805  0.65712713  0.71552813     0.01900
C2931       C  0.89726700  0.63712993  0.70131098     0.30000
C2932       C  0.88736191  0.61534105  0.71948022    -0.19500
C2933       C  0.89700910  0.61302392  0.75222720    -0.28900
C2934       C  0.91637968  0.63327744  0.76737195     0.44000
C2935       C  0.92912180  0.68007993  0.69557558     0.05200
O2936       O  0.88750040  0.63857526  0.66927823    -0.57400
H2937       H  0.87242786  0.59995711  0.70735598     0.18100
O2938       O  0.92680437  0.63155111  0.79853977    -0.64200
H2939       H  0.94209131  0.67021900  0.76011880     0.16600
C2940       C  0.93281880  0.70114751  0.71219163     0.28800
C2941       C  0.94536886  0.72288005  0.69418880    -0.25100
C2942       C  0.95490739  0.72432526  0.65958790    -0.24300
C2943       C  0.95031303  0.70310322  0.64220358     0.40300
C2944       C  0.93752740  0.68118879  0.66024006    -0.26800
O2945       O  0.92399646  0.70062022  0.74598406    -0.58700
H2946       H  0.94826932  0.73886603  0.70797618     0.15900
O2947       O  0.95961072  0.70368195  0.60881954    -0.60100
H2948       H  0.93492714  0.66511382  0.64710740     0.14400
H2949       H  0.91931370  0.63611636  0.81796107     0.46200
H2950       H  0.93802142  0.70720885  0.76220237     0.41600
H2951       H  0.94704572  0.70179787  0.59160908     0.45000
H2952       H  0.87490932  0.64245221  0.67592888     0.36500
C2953       C  0.78978305  0.54385760  0.68676792    -0.27700
C2954       C  0.79019819  0.53990058  0.64987018     0.01900
C2955       C  0.80728362  0.53437440  0.63618607     0.30000
C2956       C  0.82272066  0.53144028  0.65984057    -0.19500
C2957       C  0.82097540  0.53362989  0.69716404    -0.28900
C2958       C  0.80496869  0.54091699  0.71027646     0.44000
C2959       C  0.77098973  0.53932999  0.62724108     0.05200
O2960       O  0.80900849  0.53192325  0.59983003    -0.57400
H2961       H  0.83529765  0.52650687  0.64914242     0.18100
O2962       O  0.80350872  0.54463328  0.74632027    -0.64200
H2963       H  0.77689617  0.54833124  0.69764972     0.16600
C2964       C  0.75335873  0.51771609  0.61248085     0.28800
C2965       C  0.73291489  0.51624247  0.59689435    -0.25100
C2966       C  0.72944053  0.53609123  0.59595977    -0.24300
C2967       C  0.74760663  0.55802034  0.60962353     0.40300
C2968       C  0.76806326  0.55943179  0.62523659    -0.26800
O2969       O  0.75535200  0.49757761  0.61481063    -0.58700
H2970       H  0.71941418  0.49924865  0.58640493     0.15900
O2971       O  0.74536966  0.57806073  0.60878132    -0.60100
H2972       H  0.78135771  0.57610954  0.63692036     0.14400
H2973       H  0.81652114  0.56107720  0.75096733     0.46200
H2974       H  0.74806641  0.49025879  0.63824340     0.41600
H2975       H  0.73806867  0.57823756  0.63217631     0.45000
H2976       H  0.80222680  0.51461546  0.59571940     0.36500
C2977       C  0.75898148  0.51758223  0.85433617    -0.27700
C2978       C  0.76159201  0.53881583  0.86862104     0.01900
C2979       C  0.78390685  0.55972063  0.86582141     0.30000
C2980       C  0.80358346  0.55876507  0.85173954    -0.19500
C2981       C  0.80142287  0.53710018  0.84006479    -0.28900
C2982       C  0.77853768  0.51663298  0.83986965     0.44000
C2983       C  0.74241131  0.53800987  0.89178587     0.05200
O2984       O  0.78693616  0.58096876  0.87849497    -0.57400
H2985       H  0.82076133  0.57486168  0.85133979     0.18100
O2986       O  0.77515508  0.49529989  0.82697374    -0.64200
H2987       H  0.74202478  0.50130409  0.85628732     0.16600
C2988       C  0.71854209  0.52806274  0.88015871     0.28800
C2989       C  0.70056417  0.52482599  0.90478635    -0.25100
C2990       C  0.70609701  0.53082271  0.94119895    -0.24300
C2991       C  0.73014169  0.54170833  0.95220955     0.40300
C2992       C  0.74791909  0.54514290  0.92772254    -0.26800
O2993       O  0.71270567  0.52157279  0.84488103    -0.58700
H2994       H  0.68223914  0.51669555  0.89577130     0.15900
O2995       O  0.69800260  0.48389091  0.46373516    -0.60100
H2996       H  0.76607231  0.55257055  0.93731077     0.14400
H2997       H  0.77240178  0.49567863  0.80077630     0.46200
H2998       H  0.70458141  0.50394304  0.84476168     0.41600
H2999       H  0.70914400  0.48740570  0.48415945     0.45000
H3000       H  0.78204022  0.58770397  0.85838375     0.36500
C3001       C  0.96875683  0.56679763  0.87508050    -0.27700
C3002       C  0.98889847  0.58601746  0.85972427     0.01900
C3003       C  0.98658785  0.59445523  0.82563557     0.30000
C3004       C  0.96426407  0.58437335  0.80838553    -0.19500
C3005       C  0.94387670  0.56600782  0.82482982    -0.28900
C3006       C  0.94651975  0.55683159  0.85804313     0.44000
C3007       C  0.01201583  0.59740819  0.87979635     0.05200
O3008       O  0.00581532  0.61324511  0.80962761    -0.57400
H3009       H  0.96267549  0.59184685  0.78311877     0.18100
O3010       O  0.92724278  0.53848474  0.87473561    -0.64200
H3011       H  0.97018907  0.55964854  0.90075456     0.16600
C3012       C  0.01367433  0.60561027  0.91555251     0.28800
C3013       C  0.03590461  0.61756398  0.93305398    -0.25100
C3014       C  0.05683870  0.62169373  0.91536594    -0.24300
C3015       C  0.05486493  0.61225130  0.88029940     0.40300
C3016       C  0.03275216  0.60045436  0.86291525    -0.26800
O3017       O  0.99380145  0.60283427  0.93322353    -0.58700
H3018       H  0.03688076  0.62458782  0.95983647     0.15900
O3019       O  0.07458945  0.61491402  0.86224068    -0.60100
H3020       H  0.03184239  0.59378171  0.83588878     0.14400
H3021       H  0.92695221  0.52382746  0.86611882     0.46200
H3022       H  0.99181709  0.61641554  0.92531781     0.41600
H3023       H  0.07665902  0.60139412  0.87024035     0.45000
H3024       H  0.00628041  0.62767140  0.81973784     0.36500
C3025       C  0.75710907  0.24056463  0.85121133    -0.27700
C3026       C  0.77227396  0.23816021  0.87568232     0.01900
C3027       C  0.76847970  0.21526763  0.88407420     0.30000
C3028       C  0.74871879  0.19507700  0.86960435    -0.19500
C3029       C  0.73254809  0.19756042  0.84715464    -0.28900
C3030       C  0.73745169  0.22058571  0.83695146     0.44000
C3031       C  0.78878917  0.25925950  0.89689670     0.05200
O3032       O  0.78261158  0.21241697  0.90889113    -0.57400
H3033       H  0.74523375  0.17754174  0.87774797     0.18100
O3034       O  0.72247168  0.22381920  0.81434253    -0.64200
H3035       H  0.75982254  0.25808114  0.84463869     0.16600
C3036       C  0.81371570  0.26929902  0.89527041     0.28800
C3037       C  0.82834639  0.28908879  0.91685544    -0.25100
C3038       C  0.81822181  0.29860500  0.94056433    -0.24300
C3039       C  0.79329786  0.28903382  0.94079769     0.40300
C3040       C  0.77888187  0.26957930  0.91919423    -0.26800
O3041       O  0.82382662  0.26004800  0.87253995    -0.58700
H3042       H  0.84746281  0.29620480  0.91637908     0.15900
O3043       O  0.78273666  0.29811151  0.96297851    -0.60100
H3044       H  0.75971836  0.26213520  0.92042250     0.14400
H3045       H  0.72831862  0.22361409  0.78974662     0.46200
H3046       H  0.82970959  0.25166589  0.88831787     0.41600
H3047       H  0.78444746  0.31361311  0.46037223     0.45000
H3048       H  0.79352896  0.20897321  0.89458887     0.36500
C3049       C  0.72239059  0.19700941  0.64267268    -0.27700
C3050       C  0.74547625  0.21203908  0.65614965     0.01900
C3051       C  0.74985328  0.21101594  0.69299835     0.30000
C3052       C  0.73131706  0.19593743  0.71586506    -0.19500
C3053       C  0.70806617  0.18134161  0.70285892    -0.28900
C3054       C  0.70378487  0.18152260  0.66570349     0.44000
C3055       C  0.76446293  0.23044128  0.63295050     0.05200
O3056       O  0.77184361  0.22601853  0.70742408    -0.57400
H3057       H  0.73514607  0.19601068  0.74427746     0.18100
O3058       O  0.68143672  0.16738386  0.65185259    -0.64200
H3059       H  0.71870790  0.19763872  0.61437934     0.16600
C3060       C  0.78696823  0.23200470  0.62952572     0.28800
C3061       C  0.80593320  0.25198346  0.61325727    -0.25100
C3062       C  0.80287735  0.27067322  0.59989022    -0.24300
C3063       C  0.77982394  0.26819609  0.60102461     0.40300
C3064       C  0.76095830  0.24829716  0.61753038    -0.26800
O3065       O  0.79082309  0.21444890  0.64310424    -0.58700
H3066       H  0.82326699  0.25316628  0.61218326     0.15900
O3067       O  0.77558439  0.28541639  0.58703867    -0.60100
H3068       H  0.74375023  0.24733266  0.61969063     0.14400
H3069       H  0.67334620  0.17699949  0.65364919     0.46200
H3070       H  0.78641990  0.20269700  0.62336854     0.41600
H3071       H  0.77254606  0.28161355  0.56106553     0.45000
H3072       H  0.77874274  0.21572990  0.71359932     0.36500
C3073       C  0.85104606  0.43097883  0.71294824    -0.27700
C3074       C  0.87352730  0.43330057  0.70696094     0.01900
C3075       C  0.89403038  0.45488162  0.71573553     0.30000
C3076       C  0.89183042  0.47399475  0.72922665    -0.19500
C3077       C  0.86926788  0.47203562  0.73390034    -0.28900
C3078       C  0.84875490  0.45003258  0.72603852     0.44000
C3079       C  0.87497987  0.41441311  0.68639776     0.05200
O3080       O  0.91628606  0.45768446  0.71017414    -0.57400
H3081       H  0.90786169  0.49053376  0.73532885     0.18100
O3082       O  0.82628678  0.44697243  0.73023414    -0.64200
H3083       H  0.83510777  0.41464608  0.70566163     0.16600
C3084       C  0.86340596  0.39054303  0.69817557     0.28800
C3085       C  0.86048187  0.37232055  0.67450245    -0.25100
C3086       C  0.86841983  0.37770137  0.63882451    -0.24300
C3087       C  0.88143418  0.40172938  0.62797640     0.40300
C3088       C  0.88481219  0.41983657  0.65179347    -0.26800
O3089       O  0.85447340  0.38490177  0.73246082    -0.58700
H3090       H  0.85067170  0.35396083  0.68329590     0.15900
O3091       O  0.89052305  0.40763160  0.59375861    -0.60100
H3092       H  0.89375602  0.43808159  0.64232980     0.14400
H3093       H  0.82200144  0.45063131  0.70635267     0.46200
H3094       H  0.83703928  0.37832796  0.72995909     0.41600
H3095       H  0.87937177  0.41128673  0.58045981     0.45000
H3096       H  0.92017493  0.45209344  0.73269906     0.36500
C3097       C  0.87854533  0.46381261  0.89575470    -0.27700
C3098       C  0.87315512  0.46409549  0.93212463     0.01900
C3099       C  0.86529304  0.47979812  0.94393733     0.30000
C3100       C  0.86185386  0.49417399  0.91890915    -0.19500
C3101       C  0.86555544  0.49246968  0.88204788    -0.28900
C3102       C  0.87480096  0.47773774  0.87080973     0.44000
C3103       C  0.87272182  0.44538905  0.95558100     0.05200
O3104       O  0.86078769  0.48100667  0.97971601    -0.57400
H3105       H  0.85522029  0.50574010  0.92809480     0.18100
O3106       O  0.87948193  0.47615393  0.83520054    -0.64200
H3107       H  0.88455273  0.45177585  0.88632070     0.16600
C3108       C  0.85074868  0.42636482  0.96676412     0.28800
C3109       C  0.84966623  0.40591956  0.98136921    -0.25100
C3110       C  0.87028983  0.40380894  0.98479884    -0.24300
C3111       C  0.89253135  0.42353925  0.97563598     0.40300
C3112       C  0.89355933  0.44399421  0.96074930    -0.26800
O3113       O  0.82998810  0.42692368  0.96132663    -0.58700
H3114       H  0.83236217  0.39125875  0.98863898     0.15900
O3115       O  0.91040000  0.42543702  0.49451325    -0.60100
H3116       H  0.91055283  0.45843017  0.95178529     0.14400
H3117       H  0.89648942  0.48818636  0.83176410     0.46200
H3118       H  0.82469178  0.42049981  0.93675338     0.41600
H3119       H  0.91262147  0.43096703  0.51983339     0.45000
H3120       H  0.84318376  0.47295152  0.98183871     0.36500
C3121       C  0.92448972  0.22971289  0.95524133    -0.27700
C3122       C  0.92436696  0.24945831  0.93980185     0.01900
C3123       C  0.93689093  0.25885043  0.90729777     0.30000
C3124       C  0.95004688  0.24908453  0.89167619    -0.19500
C3125       C  0.95108535  0.23005878  0.90817143    -0.28900
C3126       C  0.93767655  0.22006102  0.93981414     0.44000
C3127       C  0.91256394  0.26104120  0.95928292     0.05200
O3128       O  0.93799257  0.27877672  0.89227677    -0.57400
H3129       H  0.96053454  0.25729287  0.86777709     0.18100
O3130       O  0.93735560  0.20077418  0.95591017    -0.64200
H3131       H  0.91474065  0.22207055  0.97992180     0.16600
C3132       C  0.89467092  0.26425864  0.94295829     0.28800
C3133       C  0.88514801  0.27672233  0.96114076    -0.25100
C3134       C  0.89619871  0.28898395  0.50051044    -0.24300
C3135       C  0.91245274  0.28350451  0.51744978     0.40300
C3136       C  0.92218579  0.27153302  0.49825321    -0.26800
O3137       O  0.88604580  0.25482081  0.90959687    -0.58700
H3138       H  0.87179150  0.27946144  0.94767942     0.15900
O3139       O  0.92020056  0.29114169  0.55177822    -0.60100
H3140       H  0.93532041  0.26823179  0.51123304     0.14400
H3141       H  0.94833933  0.20728811  0.97671003     0.46200
H3142       H  0.89035638  0.26861851  0.89353637     0.41600
H3143       H  0.90909440  0.27792086  0.56757225     0.45000
H3144       H  0.92923197  0.27341251  0.86918323     0.36500
C3145       C  0.06317196  0.21118940  0.72895010    -0.27700
C3146       C  0.07628987  0.19941649  0.73431400     0.01900
C3147       C  0.07075134  0.18373980  0.76349336     0.30000
C3148       C  0.05247652  0.18009790  0.78709975    -0.19500
C3149       C  0.03917030  0.19176349  0.78210888    -0.28900
C3150       C  0.04451849  0.20729553  0.75248953     0.44000
C3151       C  0.09560300  0.20281048  0.70953885     0.05200
O3152       O  0.08375626  0.17252002  0.76984444    -0.57400
H3153       H  0.04889406  0.16820569  0.80971483     0.18100
O3154       O  0.03249015  0.21960547  0.74730653    -0.64200
H3155       H  0.06739124  0.22335349  0.70654289     0.16600
C3156       C  0.09255437  0.18397009  0.68725276     0.28800
C3157       C  0.11227912  0.18449532  0.67089499    -0.25100
C3158       C  0.13528695  0.20388691  0.67595763    -0.24300
C3159       C  0.13800251  0.22381747  0.69552348     0.40300
C3160       C  0.11820000  0.22304373  0.71252612    -0.26800
O3161       O  0.07053918  0.16419984  0.68337521    -0.58700
H3162       H  0.10964426  0.16923469  0.65525919     0.15900
O3163       O  0.16008673  0.24325822  0.70071119    -0.60100
H3164       H  0.12071942  0.23763595  0.72973848     0.14400
H3165       H  0.01955435  0.20985142  0.73012513     0.46200
H3166       H  0.06280710  0.16814166  0.66350837     0.41600
H3167       H  0.16205858  0.25429736  0.68077536     0.45000
H3168       H  0.07423319  0.15640141  0.75936285     0.36500
C3169       C  0.12842477  0.21197957  0.51505214    -0.27700
C3170       C  0.12456231  0.20224749  0.48048125     0.01900
C3171       C  0.13961382  0.19371214  0.97096803     0.30000
C3172       C  0.15441222  0.19015248  0.49222926    -0.19500
C3173       C  0.15701344  0.19853290  0.52772536    -0.28900
C3174       C  0.14434667  0.21016775  0.53854346     0.44000
C3175       C  0.10660790  0.20364378  0.96068091     0.05200
O3176       O  0.13629209  0.18397522  0.93723362    -0.57400
H3177       H  0.16397247  0.18121005  0.48340458     0.18100
O3178       O  0.14657467  0.21890301  0.57282852    -0.64200
H3179       H  0.11818377  0.22008454  0.52449657     0.16600
C3180       C  0.08572551  0.18168704  0.95560712     0.28800
C3181       C  0.06534533  0.18096438  0.94110734    -0.25100
C3182       C  0.06511998  0.20199336  0.93175443    -0.24300
C3183       C  0.08639892  0.22395460  0.93563859     0.40300
C3184       C  0.10683088  0.22462725  0.95014706    -0.26800
O3185       O  0.08102347  0.15898522  0.46833906    -0.58700
H3186       H  0.04940481  0.16380780  0.93826822     0.15900
O3187       O  0.08747538  0.24488926  0.92557347    -0.60100
H3188       H  0.12274560  0.24167175  0.95414513     0.14400
H3189       H  0.16022496  0.23536389  0.57177188     0.46200
H3190       H  0.07640910  0.15813151  0.49397357     0.41600
H3191       H  0.08446124  0.25136409  0.94792258     0.45000
H3192       H  0.12727956  0.16650310  0.94092950     0.36500
C3193       C  0.94120586  0.13807998  0.52322329    -0.27700
C3194       C  0.92029220  0.12359102  0.01448516     0.01900
C3195       C  0.91515001  0.12983416  0.98076898     0.30000
C3196       C  0.93366241  0.14600506  0.95888181    -0.19500
C3197       C  0.95750112  0.15628560  0.97010169    -0.28900
C3198       C  0.96264329  0.15108493  0.00460431     0.44000
C3199       C  0.89841757  0.10616826  0.53148961     0.05200
O3200       O  0.89217491  0.11928961  0.96822239    -0.57400
H3201       H  0.92945238  0.14983825  0.93231465     0.18100
O3202       O  0.98296909  0.16471843  0.51417871    -0.64200
H3203       H  0.94497132  0.13511147  0.55054931     0.16600
C3204       C  0.90110924  0.08716160  0.54447753     0.28800
C3205       C  0.88194316  0.06761722  0.56091876    -0.25100
C3206       C  0.85969277  0.06643832  0.56505171    -0.24300
C3207       C  0.85724089  0.08591000  0.55325249     0.40300
C3208       C  0.87645941  0.10546711  0.53649326    -0.26800
O3209       O  0.92192638  0.08673263  0.53898347    -0.58700
H3210       H  0.88448641  0.05304488  0.56979196     0.15900
O3211       O  0.83595403  0.08567005  0.55654933    -0.60100
H3212       H  0.88233505  0.12280914  0.04715560     0.14400
H3213       H  0.99120400  0.14971111  0.00791858     0.46200
H3214       H  0.93012930  0.09075426  0.56262482     0.41600
H3215       H  0.83686960  0.09335616  0.58003577     0.45000
H3216       H  0.88998616  0.10524063  0.95433536     0.36500
C3217       C  0.89245051  0.11725309  0.80071727    -0.27700
C3218       C  0.89323868  0.09677262  0.79030237     0.01900
C3219       C  0.91402716  0.09545018  0.79670538     0.30000
C3220       C  0.93395396  0.11477793  0.81200022    -0.19500
C3221       C  0.93365055  0.13575146  0.82122639    -0.28900
C3222       C  0.91233623  0.13656222  0.81642895     0.44000
C3223       C  0.87388217  0.07845914  0.76804730     0.05200
O3224       O  0.91571897  0.07614320  0.78527266    -0.57400
H3225       H  0.94999686  0.11355873  0.81541798     0.18100
O3226       O  0.91093084  0.15637066  0.82573445    -0.64200
H3227       H  0.87655765  0.11850945  0.79570116     0.16600
C3228       C  0.86150376  0.05429465  0.77825089     0.28800
C3229       C  0.84612274  0.03700120  0.75375753    -0.25100
C3230       C  0.84319876  0.04361627  0.71897734    -0.24300
C3231       C  0.85451159  0.06792444  0.70967198     0.40300
C3232       C  0.86962486  0.08510034  0.73415940    -0.26800
O3233       O  0.86506075  0.04736277  0.81148704    -0.58700
H3234       H  0.83742967  0.01838649  0.76130342     0.15900
O3235       O  0.85156971  0.07503865  0.67615987    -0.60100
H3236       H  0.87899170  0.10361475  0.72599073     0.14400
H3237       H  0.90527918  0.15363588  0.85102050     0.46200
H3238       H  0.85311872  0.04814101  0.82737573     0.41600
H3239       H  0.83605984  0.07473640  0.67718152     0.45000
H3240       H  0.91449552  0.06702015  0.80740151     0.36500
C3241       C  0.98622371  0.39600195  0.58328145    -0.27700
C3242       C  0.98719792  0.40752065  0.61592734     0.01900
C3243       C  0.96663388  0.40765838  0.62805629     0.30000
C3244       C  0.94523697  0.39522015  0.60888532    -0.19500
C3245       C  0.94386608  0.38250381  0.57739644    -0.28900
C3246       C  0.96477034  0.38358446  0.56400072     0.44000
C3247       C  0.00970405  0.41892541  0.63713874     0.05200
O3248       O  0.96739691  0.42014075  0.65836218    -0.57400
H3249       H  0.92936599  0.39481886  0.61939677     0.18100
O3250       O  0.96401478  0.37095411  0.53392922    -0.64200
H3251       H  0.00196672  0.39586445  0.57344600     0.16600
C3252       C  0.01103011  0.41128874  0.67232120     0.28800
C3253       C  0.03318586  0.42048095  0.68988128    -0.25100
C3254       C  0.05421286  0.43714293  0.67259263    -0.24300
C3255       C  0.05249080  0.44585064  0.63841475     0.40300
C3256       C  0.03051105  0.43659393  0.62095036    -0.26800
O3257       O  0.99100641  0.39395348  0.68901161    -0.58700
H3258       H  0.03407510  0.41347458  0.71597140     0.15900
O3259       O  0.07246078  0.46277934  0.62105444    -0.60100
H3260       H  0.02979507  0.44288067  0.59418692     0.14400
H3261       H  0.96929689  0.38262699  0.51391637     0.46200
H3262       H  0.98891243  0.37869373  0.67957090     0.41600
H3263       H  0.07304084  0.47810196  0.62632068     0.45000
H3264       H  0.95786399  0.40795477  0.67669410     0.36500
C3265       C  0.06012611  0.31905124  0.83411837    -0.27700
C3266       C  0.06954032  0.32021587  0.79947818     0.01900
C3267       C  0.06773449  0.29940698  0.78448863     0.30000
C3268       C  0.05578877  0.27782561  0.80322832    -0.19500
C3269       C  0.04528119  0.27633249  0.83705081    -0.28900
C3270       C  0.04812577  0.29736548  0.85291011     0.44000
C3271       C  0.08127291  0.34324178  0.77948071     0.05200
O3272       O  0.07816208  0.30014228  0.75195926    -0.57400
H3273       H  0.05425673  0.26198157  0.79072334     0.18100
O3274       O  0.03790917  0.29671876  0.88552929    -0.64200
H3275       H  0.06146596  0.33492270  0.84620526     0.16600
C3276       C  0.07397273  0.34549030  0.74449317     0.28800
C3277       C  0.08452382  0.36776302  0.72727021    -0.25100
C3278       C  0.10194242  0.38819657  0.74481473    -0.24300
C3279       C  0.10979582  0.38572993  0.77927704     0.40300
C3280       C  0.09945611  0.36350137  0.79623521    -0.26800
O3281       O  0.05568620  0.32631330  0.72761334    -0.58700
H3282       H  0.07798402  0.36927979  0.70110587     0.15900
O3283       O  0.12708993  0.40513126  0.79723277    -0.60100
H3284       H  0.10545203  0.36214495  0.82292201     0.14400
H3285       H  0.05040121  0.29971263  0.90358406     0.46200
H3286       H  0.04099889  0.32642084  0.73520470     0.41600
H3287       H  0.14238793  0.40637125  0.78957235     0.45000
H3288       H  0.06485042  0.29031306  0.73535616     0.36500
C3289       C  0.24992863  0.48676286  0.87290848    -0.27700
C3290       C  0.23061710  0.46469348  0.86329634     0.01900
C3291       C  0.23139051  0.44378314  0.87102368     0.30000
C3292       C  0.25150347  0.44514806  0.88763435    -0.19500
C3293       C  0.27127004  0.46729579  0.89643580    -0.28900
C3294       C  0.27014207  0.48822736  0.88930633     0.44000
C3295       C  0.21120354  0.46403030  0.84135079     0.05200
O3296       O  0.21286183  0.42197505  0.86143740    -0.57400
H3297       H  0.25180998  0.42879729  0.89282211     0.18100
O3298       O  0.28895495  0.51028236  0.89702313    -0.64200
H3299       H  0.24968963  0.50300733  0.86645110     0.16600
C3300       C  0.19602862  0.47210836  0.85480224     0.28800
C3301       C  0.17979515  0.47403977  0.83174478    -0.25100
C3302       C  0.17906368  0.46857017  0.79507637    -0.24300
C3303       C  0.19353809  0.45937906  0.78221674     0.40300
C3304       C  0.20937942  0.45717895  0.80529542    -0.26800
O3305       O  0.19706013  0.47822702  0.89033628    -0.58700
H3306       H  0.16864324  0.48085967  0.84212910     0.15900
O3307       O  0.19287486  0.45312966  0.74676718    -0.60100
H3308       H  0.22098138  0.45095552  0.79465401     0.14400
H3309       H  0.28555825  0.51417056  0.92135343     0.46200
H3310       H  0.20747970  0.49574406  0.89100563     0.41600
H3311       H  0.17895143  0.43688994  0.74478818     0.45000
H3312       H  0.20151268  0.41707304  0.88185076     0.36500
C3313       C  0.24903640  0.45255382  0.56155499    -0.27700
C3314       C  0.25447197  0.46257951  0.59605118     0.01900
C3315       C  0.27825883  0.47320170  0.60836562     0.30000
C3316       C  0.29635433  0.47486459  0.58528202    -0.19500
C3317       C  0.29091602  0.46631902  0.54988822    -0.28900
C3318       C  0.26693038  0.45427794  0.53867436     0.44000
C3319       C  0.23510483  0.46297965  0.61720073     0.05200
O3320       O  0.28383917  0.48174681  0.64286966    -0.57400
H3321       H  0.31468075  0.48383381  0.59442759     0.18100
O3322       O  0.26397436  0.44683300  0.00163072    -0.64200
H3323       H  0.23087810  0.44416860  0.55168405     0.16600
C3324       C  0.23679831  0.48465755  0.62801161     0.28800
C3325       C  0.21699178  0.48494655  0.64288372    -0.25100
C3326       C  0.19500233  0.46386104  0.64673983    -0.24300
C3327       C  0.19346018  0.44211573  0.63641052     0.40300
C3328       C  0.21338921  0.44182445  0.62197495    -0.26800
O3329       O  0.25736504  0.50582334  0.62260571    -0.58700
H3330       H  0.21875957  0.50191323  0.65059422     0.15900
O3331       O  0.17246724  0.42106278  0.63944642    -0.60100
H3332       H  0.21166737  0.42502334  0.61336624     0.14400
H3333       H  0.26385984  0.43144094  0.00296021     0.46200
H3334       H  0.25615355  0.51068812  0.59772873     0.41600
H3335       H  0.16431068  0.41895593  0.61600961     0.45000
H3336       H  0.29416200  0.49920987  0.64049867     0.36500
C3337       C  0.14141948  0.57003443  0.52399446    -0.27700
C3338       C  0.12047671  0.55442425  0.54236813     0.01900
C3339       C  0.10119056  0.55888734  0.54233378     0.30000
C3340       C  0.10354425  0.57944478  0.52588943    -0.19500
C3341       C  0.12508533  0.59590710  0.50946947    -0.28900
C3342       C  0.14379146  0.59052797  0.50745501     0.44000
C3343       C  0.12054856  0.53596686  0.56593254     0.05200
O3344       O  0.08037729  0.54385219  0.55979509    -0.57400
H3345       H  0.08881074  0.58299128  0.52740844     0.18100
O3346       O  0.16820148  0.60905755  0.98723429    -0.64200
H3347       H  0.15652289  0.56702421  0.52409825     0.16600
C3348       C  0.12683562  0.51929358  0.55296826     0.28800
C3349       C  0.13092544  0.50499205  0.57722514    -0.25100
C3350       C  0.12931517  0.50757446  0.61442813    -0.24300
C3351       C  0.12137324  0.52312292  0.62705151     0.40300
C3352       C  0.11719514  0.53716675  0.60291865    -0.26800
O3353       O  0.12910852  0.51699957  0.51670965    -0.58700
H3354       H  0.13641986  0.49273643  0.56702285     0.15900
O3355       O  0.11830800  0.52531435  0.66312469    -0.60100
H3356       H  0.11241633  0.54991567  0.61336358     0.14400
H3357       H  0.16598464  0.60569549  0.96105799     0.46200
H3358       H  0.14648629  0.52452298  0.51224629     0.41600
H3359       H  0.10229727  0.51185982  0.66897655     0.45000
H3360       H  0.07103169  0.53100729  0.54229467     0.36500
C3361       C  0.15099983  0.57204135  0.77997674    -0.27700
C3362       C  0.12916741  0.56926833  0.79187017     0.01900
C3363       C  0.10827170  0.54731417  0.78652343     0.30000
C3364       C  0.10963575  0.52815040  0.77127307    -0.19500
C3365       C  0.13173201  0.53040207  0.76153564    -0.28900
C3366       C  0.15245599  0.55289666  0.76508228     0.44000
C3367       C  0.12914383  0.58823140  0.81433536     0.05200
O3368       O  0.08648872  0.54453528  0.79612562    -0.57400
H3369       H  0.09337951  0.51130254  0.76804984     0.18100
O3370       O  0.17432021  0.55641640  0.75443133    -0.64200
H3371       H  0.16722341  0.58883849  0.78390326     0.16600
C3372       C  0.12216949  0.58347837  0.85059646     0.28800
C3373       C  0.12553104  0.60194186  0.87346056    -0.25100
C3374       C  0.13614596  0.62555963  0.86117051    -0.24300
C3375       C  0.14208626  0.63032159  0.82451916     0.40300
C3376       C  0.13885345  0.61170010  0.80139578    -0.26800
O3377       O  0.11335799  0.56102960  0.86458205    -0.58700
H3378       H  0.12055974  0.59782869  0.90150656     0.15900
O3379       O  0.15260964  0.65316896  0.81167300    -0.60100
H3380       H  0.14457459  0.61565882  0.77362983     0.14400
H3381       H  0.18185780  0.55464914  0.77661613     0.46200
H3382       H  0.12753579  0.56014206  0.87277044     0.41600
H3383       H  0.13924487  0.65533519  0.80309065     0.45000
H3384       H  0.08072205  0.53289322  0.81619862     0.36500
loop_ 
_geom_bond_atom_site_label_1 
_geom_bond_atom_site_label_2 
_geom_bond_distance 
_geom_bond_site_symmetry_2 
_ccdc_geom_bond_type 
O1          Cr19   1.945       .  S
O1            C9   1.261       .  A
O2          Cr19   2.001       .  S
O2            C3   1.259       .  A
C3            O4   1.257       .  A
C3         C1673   1.489       .  S
O4          Cr20   1.993       .  S
O5          Cr20   2.040       .  S
O5            C6   1.274       .  A
C6            O7   1.254       .  A
C6         C1562   1.489       .  S
O7          Cr21   1.950       .  S
O8          Cr21   2.047       .  S
O8            C9   1.280       .  A
C9         C1658   1.481       .  S
O10         Cr19   1.998       .  S
O10          C18   1.259       .  A
O11         Cr19   1.949       .  S
O11          C12   1.261       .  A
C12          O13   1.281       .  A
C12        C1610   1.487       .  S
O13         Cr20   2.050       .  S
O14         Cr20   1.952       .  S
O14          C15   1.254       .  A
C15          O16   1.272       .  A
C15        C1586   1.490       .  S
O16         Cr21   2.038       .  S
O17         Cr21   1.988       .  S
O17          C18   1.255       .  A
C18        C1634   1.488       .  S
Cr19         O22   1.771       .  S
Cr20         O22   1.769       .  S
Cr21         O22   1.771       .  S
O23         Cr41   1.949       .  S
O23          C31   1.259       .  A
O24         Cr41   2.003       .  S
O24          C25   1.262       .  A
C25          O26   1.257       .  A
C25        C1529   1.488       .  S
O26         Cr42   1.986       .  S
O27         Cr42   2.038       .  S
O27          C28   1.272       .  A
C28          O29   1.255       .  A
C28        C1433   1.486       .  S
O29         Cr43   1.955   1_655  S
O30         Cr43   2.046   1_655  S
O30          C31   1.278       .  A
C31        C1505   1.479       .  S
O32         Cr41   2.010   1_455  S
O32          C40   1.263       .  A
O33         Cr41   1.947   1_455  S
O33          C34   1.260       .  A
C34          O35   1.277       .  A
C34        C1457   1.478       .  S
O35         Cr42   2.038   1_455  S
O36         Cr42   1.955   1_455  S
O36          C37   1.254       .  A
C37          O38   1.273       .  A
C37        C1577   1.485       .  S
O38         Cr43   2.042       .  S
O39         Cr43   1.993       .  S
O39          C40   1.259       .  A
C40        C1490   1.495       .  S
Cr41         O44   1.767       .  S
Cr42         O44   1.768       .  S
Cr43         O44   1.766   1_455  S
O45         Cr63   1.945   1_556  S
O45        C1745   1.262       .  A
O46         Cr63   2.005       .  S
O46          C47   1.261       .  A
C47          O48   1.259       .  A
C47        C1370   1.492       .  S
O48         Cr64   1.993       .  S
O49         Cr64   2.031       .  S
O49          C50   1.271       .  A
C50          O51   1.255   1_554  A
C50        C1442   1.489   1_554  S
O51       Cr1757   1.958       .  S
O52         Cr65   2.041       .  S
O52          C53   1.280       .  A
C53        O1737   1.263       .  A
C53        C1346   1.478       .  S
O54         Cr63   1.993       .  S
O54        C1754   1.257   1_554  A
O55         Cr63   1.954       .  S
O55          C56   1.261       .  A
C56          O57   1.276       .  A
C56        C1394   1.472       .  S
O57         Cr64   2.035       .  S
O58         Cr64   1.955       .  S
O58          C59   1.255       .  A
C59          O60   1.271       .  A
C59        C1553   1.487       .  S
O60       Cr1757   2.034   1_554  S
O61         Cr65   1.994       .  S
O61          C62   1.256       .  A
C62        O1746   1.257       .  A
C62        C1418   1.487       .  S
Cr63         O66   1.771       .  S
Cr64         O66   1.769       .  S
Cr65       O1743   1.955       .  S
Cr65       O1752   2.033       .  S
Cr65       O1758   1.770       .  S
O66       Cr1757   1.771   1_554  S
O67         Cr85   1.991       .  S
O67          C75   1.256       .  A
O68         Cr85   1.954       .  S
O68          C69   1.263       .  A
C69          O70   1.277       .  A
C69        C1409   1.475       .  S
O70         Cr86   2.036       .  S
O71         Cr86   1.952       .  S
O71          C72   1.254       .  A
C72          O73   1.272       .  A
C72        C1313   1.486       .  S
O73         Cr87   2.036       .  S
O74         Cr87   1.997       .  S
O74          C75   1.257       .  A
C75        C1385   1.487       .  S
O76         Cr85   1.949       .  S
O76          C84   1.263       .  A
O77         Cr85   1.995       .  S
O77          C78   1.258       .  A
C78          O79   1.256       .  A
C78        C1289   1.482       .  S
O79         Cr86   1.990       .  S
O80         Cr86   2.026       .  S
O80          C81   1.270       .  A
C81          O82   1.255       .  A
C81        C1241   1.483       .  S
O82         Cr87   1.952       .  S
O83         Cr87   2.047       .  S
O83          C84   1.280       .  A
C84        C1265   1.478       .  S
Cr85         O88   1.766       .  S
Cr86         O88   1.772       .  S
Cr87         O88   1.771       .  S
O89        Cr107   1.998       .  S
O89          C97   1.261       .  A
O90        Cr107   1.947       .  S
O90        C1783   1.258       .  A
C91          O92   1.280       .  A
C91        O1782   1.261   1_554  A
C91        C1202   1.483       .  S
O92        Cr108   2.049   1_554  S
O93       Cr1800   1.950       .  S
O93          C94   1.253       .  A
C94          O95   1.275       .  A
C94        C1178   1.490       .  S
O95        Cr109   2.049       .  S
O96        Cr109   1.979       .  S
O96          C97   1.257       .  A
C97        C1217   1.479       .  S
O98        Cr107   1.941       .  S
O98         C106   1.258       .  A
O99        Cr107   2.000       .  S
O99        C1792   1.262       .  A
C100        O101   1.258       .  A
C100       O1791   1.259       .  A
C100       C1649   1.485   1_556  S
O101       Cr108   1.991       .  S
O102      Cr1800   2.045       .  S
O102        C103   1.273       .  A
C103        O104   1.252       .  A
C103       C1322   1.488       .  S
O104       Cr109   1.947       .  S
O105       Cr109   2.054       .  S
O105        C106   1.279       .  A
C106       C1682   1.495       .  S
Cr107       O110   1.766       .  S
Cr108      O1785   1.951   1_556  S
Cr108      O1794   2.045       .  S
Cr108      O1802   1.767       .  S
Cr109       O110   1.770       .  S
O110      Cr1800   1.768       .  S
O111       Cr129   1.991       .  S
O111        C119   1.258       .  A
O112       Cr129   1.952       .  S
O112        C113   1.262       .  A
C113        O114   1.282       .  A
C113       C1121   1.491       .  S
O114       Cr130   2.052   1_455  S
O115       Cr130   1.941   1_455  S
O115        C116   1.253       .  A
C116        O117   1.274       .  A
C116       C1169   1.489       .  S
O117       Cr131   2.043       .  S
O118       Cr131   1.990       .  S
O118        C119   1.255       .  A
C119       C1145   1.481       .  S
O120       Cr129   1.953   1_655  S
O120        C128   1.264       .  A
O121       Cr129   2.000   1_655  S
O121        C122   1.258       .  A
C122        O123   1.254       .  A
C122       C1097   1.485       .  S
O123       Cr130   1.987       .  S
O124       Cr130   2.030       .  S
O124        C125   1.270       .  A
C125        O126   1.254       .  A
C125       C1250   1.481       .  S
O126       Cr131   1.949   1_655  S
O127       Cr131   2.054   1_655  S
O127        C128   1.283       .  A
C128       C1073   1.493       .  S
Cr129       O132   1.768       .  S
Cr130       O132   1.768   1_655  S
Cr131       O132   1.771       .  S
O133       Cr151   1.934       .  S
O133        C141   1.259       .  A
O134       Cr151   2.000       .  S
O134        C135   1.261       .  A
C135        O136   1.258       .  A
C135       C1193   1.486       .  S
O136       Cr152   1.994       .  S
O137       Cr152   2.031       .  S
O137        C138   1.270       .  A
C138        O139   1.256       .  A
C138       C1025   1.487       .  S
O139       Cr153   1.964       .  S
O140       Cr153   2.044       .  S
O140        C141   1.280       .  A
C141       C1226   1.485       .  S
O142       Cr151   1.996       .  S
O142        C150   1.257       .  A
O143       Cr151   1.947       .  S
O143        C144   1.260       .  A
C144        O145   1.277       .  A
C144        C986   1.474       .  S
O145       Cr152   2.041       .  S
O146       Cr152   1.943       .  S
O146        C147   1.255       .  A
C147        O148   1.272       .  A
C147       C1049   1.492       .  S
O148       Cr153   2.036       .  S
O149       Cr153   1.992       .  S
O149        C150   1.256       .  A
C150       C1010   1.489       .  S
Cr151       O154   1.770       .  S
Cr152       O154   1.770       .  S
Cr153       O154   1.770       .  S
O155       Cr173   1.948   1_565  S
O155        C163   1.260       .  A
O156       Cr173   1.992   1_565  S
O156        C157   1.260       .  A
C157        O158   1.261       .  A
C157       C1130   1.484       .  S
O158       Cr174   1.993       .  S
O159       Cr174   2.038       .  S
O159        C160   1.272       .  A
C160        O161   1.255       .  A
C160       C1034   1.485       .  S
O161       Cr175   1.966   1_565  S
O162       Cr175   2.036   1_565  S
O162        C163   1.275       .  A
C163       C1154   1.480       .  S
O164       Cr173   1.991       .  S
O164        C172   1.259       .  A
O165       Cr173   1.955       .  S
O165        C166   1.261       .  A
C166        O167   1.276       .  A
C166        C929   1.487       .  S
O167       Cr174   2.040   1_545  S
O168       Cr174   1.960   1_545  S
O168        C169   1.256       .  A
C169        O170   1.272       .  A
C169        C905   1.484       .  S
O170       Cr175   2.037       .  S
O171       Cr175   1.994       .  S
O171        C172   1.260       .  A
C172        C953   1.489       .  S
Cr173       O176   1.765       .  S
Cr174       O176   1.768   1_565  S
Cr175       O176   1.770       .  S
O177       Cr195   2.000       .  S
O177        C185   1.268       .  A
O178       Cr195   1.978       .  S
O178       C1871   1.255       .  A
C179        O180   1.265       .  A
C179       O1870   1.257       .  A
C179        C842   1.491       .  S
O180       Cr196   2.009       .  S
O181      Cr1888   2.010       .  S
O181        C182   1.269       .  A
C182        O183   1.264       .  A
C182       C1058   1.489       .  S
O183       Cr197   1.990       .  S
O184       Cr197   1.999       .  S
O184        C185   1.265       .  A
C185        C818   1.496       .  S
O186       Cr195   1.982       .  S
O186        C194   1.260       .  A
O187      Cr1887   2.005       .  S
O187        C188   1.266       .  A
C188        O189   1.265       .  A
C188        C857   1.481       .  S
O189       Cr196   1.993       .  S
O190      Cr1888   1.988       .  S
O190        C191   1.262       .  A
C191        O192   1.271       .  A
C191        C914   1.488       .  S
O192       Cr197   2.021       .  S
O193       Cr197   2.004       .  S
O193        C194   1.264       .  A
C194        C890   1.487       .  S
Cr195      O1879   2.017   1_554  S
Cr195       O198   1.768       .  S
Cr196      O1873   2.015       .  S
Cr196      O1882   1.996       .  S
Cr196      O1890   1.768       .  S
Cr197       O198   1.767       .  S
O198      Cr1888   1.768       .  S
O199       Cr217   2.004       .  S
O199        C207   1.260       .  A
O200       Cr217   1.951       .  S
O200        C201   1.262       .  A
C201        O202   1.279       .  A
C201       C1538   1.485       .  S
O202       Cr218   2.042   1_545  S
O203       Cr218   1.951   1_545  S
O203        C204   1.253       .  A
C204        O205   1.271       .  A
C204        C761   1.482       .  S
O205       Cr219   2.034       .  S
O206       Cr219   1.987       .  S
O206        C207   1.256       .  A
C207       C1514   1.487       .  S
O208       Cr217   1.955   1_565  S
O208        C216   1.262       .  A
O209       Cr217   2.001   1_565  S
O209        C210   1.259       .  A
C210        O211   1.256       .  A
C210        C737   1.488       .  S
O211       Cr218   1.987       .  S
O212       Cr218   2.036       .  S
O212        C213   1.272       .  A
C213        O214   1.255       .  A
C213        C794   1.489       .  S
O214       Cr219   1.949   1_565  S
O215       Cr219   2.045   1_565  S
O215        C216   1.279       .  A
C216        C713   1.479       .  S
Cr217       O220   1.769       .  S
Cr218       O220   1.771   1_565  S
Cr219       O220   1.769       .  S
O221       Cr239   1.985       .  S
O221       C1921   1.255       .  A
O222       Cr239   1.949       .  S
O222        C223   1.262       .  A
C223        O224   1.279       .  A
C223       C1001   1.476       .  S
O224       Cr240   2.046       .  S
O225       Cr240   1.963       .  S
O225        C226   1.258       .  A
C226        O227   1.274       .  A
C226        C641   1.500       .  S
O227      Cr1933   2.040       .  S
O228       Cr241   1.990       .  S
O228        C229   1.257   1_556  A
C229       O1913   1.257   1_554  A
C229        C977   1.486       .  S
O230      Cr1931   1.948       .  S
O230        C238   1.262   1_556  A
O231       Cr239   1.990       .  S
O231        C232   1.256       .  A
C232        O233   1.258       .  A
C232        C698   1.487       .  S
O233       Cr240   1.997       .  S
O234       Cr240   2.032       .  S
O234        C235   1.271       .  A
C235        O236   1.255       .  A
C235        C785   1.483       .  S
O236      Cr1933   1.954       .  S
O237       Cr241   2.044   1_554  S
O237        C238   1.279       .  A
C238        C665   1.472       .  S
Cr239      O1922   1.946       .  S
Cr239       O242   1.769       .  S
Cr240       O242   1.769       .  S
Cr241      O1919   2.039       .  S
Cr241      O1928   1.951   1_556  S
Cr241      O1934   1.769       .  S
O242      Cr1933   1.769       .  S
O243       Cr261   1.999       .  S
O243        C251   1.261       .  A
O244       Cr261   1.952       .  S
O244        C245   1.259       .  A
C245        O246   1.279       .  A
C245       C1361   1.495       .  S
O246       Cr262   2.052       .  S
O247       Cr262   1.950       .  S
O247        C248   1.254       .  A
C248        O249   1.272       .  A
C248        C770   1.492       .  S
O249       Cr263   2.039       .  S
O250       Cr263   1.990       .  S
O250        C251   1.259       .  A
C251       C1337   1.484       .  S
O252       Cr261   1.957       .  S
O252        C260   1.262       .  A
O253       Cr261   2.004       .  S
O253        C254   1.263       .  A
C254        O255   1.259       .  A
C254        C809   1.492       .  S
O255       Cr262   1.992       .  S
O256       Cr262   2.049       .  S
O256        C257   1.275       .  A
C257        O258   1.255       .  A
C257        C650   1.492       .  S
O258       Cr263   1.961       .  S
O259       Cr263   2.035       .  S
O259        C260   1.276       .  A
C260        C833   1.478       .  S
Cr261       O264   1.770       .  S
Cr262       O264   1.773       .  S
Cr263       O264   1.774       .  S
O265       Cr283   2.005       .  S
O265        C273   1.261       .  A
O266       Cr283   1.948       .  S
O266        C267   1.261       .  A
C267        O268   1.278       .  A
C267        C545   1.487       .  S
O268       Cr284   2.046       .  S
O269       Cr284   1.955       .  S
O269        C270   1.255       .  A
C270        O271   1.274       .  A
C270        C617   1.491       .  S
O271       Cr285   2.043       .  S
O272       Cr285   1.996       .  S
O272        C273   1.259       .  A
C273        C578   1.495       .  S
O274       Cr283   1.957       .  S
O274        C282   1.263       .  A
O275       Cr283   2.008       .  S
O275        C276   1.262       .  A
C276        O277   1.258       .  A
C276        C866   1.489       .  S
O277       Cr284   1.995       .  S
O278       Cr284   2.036       .  S
O278        C279   1.272       .  A
C279        O280   1.255       .  A
C279        C593   1.491       .  S
O280       Cr285   1.958       .  S
O281       Cr285   2.044       .  S
O281        C282   1.280       .  A
C282        C881   1.488       .  S
Cr283       O286   1.772       .  S
Cr284       O286   1.774       .  S
Cr285       O286   1.770       .  S
O287       Cr305   1.998       .  S
O287        C295   1.260       .  A
O288       Cr305   1.941       .  S
O288        C289   1.261       .  A
C289        O290   1.279       .  A
C289        C962   1.480       .  S
O290       Cr306   2.045       .  S
O291       Cr306   1.953       .  S
O291        C292   1.254       .  A
C292        O293   1.272       .  A
C292        C602   1.490       .  S
O293       Cr307   2.037       .  S
O294       Cr307   1.991       .  S
O294        C295   1.257       .  A
C295        C938   1.481       .  S
O296       Cr305   1.953       .  S
O296        C304   1.262       .  A
O297       Cr305   1.996       .  S
O297        C298   1.258       .  A
C298        O299   1.255       .  A
C298       C1466   1.487       .  S
O299       Cr306   1.987       .  S
O300       Cr306   2.033       .  S
O300        C301   1.271       .  A
C301        O302   1.256       .  A
C301        C521   1.488       .  S
O302       Cr307   1.956       .  S
O303       Cr307   2.044       .  S
O303        C304   1.278       .  A
C304       C1481   1.477       .  S
Cr305       O308   1.769       .  S
Cr306       O308   1.772       .  S
Cr307       O308   1.772       .  S
O309       Cr327   2.003       .  S
O309       C2009   1.261       .  A
O310       Cr327   1.945       .  S
O310        C311   1.261       .  A
C311        O312   1.277       .  A
C311        C482   1.472       .  S
O312       Cr328   2.038       .  S
O313       Cr328   1.956       .  S
O313        C314   1.254       .  A
C314        O315   1.274       .  A
C314        C626   1.494       .  S
O315      Cr2021   2.042       .  S
O316       Cr329   1.989       .  S
O316        C317   1.256       .  A
C317       O2001   1.259       .  A
C317        C497   1.487   1_556  S
O318      Cr2019   1.953       .  S
O318        C326   1.264   1_556  A
O319       Cr327   2.006       .  S
O319        C320   1.260       .  A
C320        O321   1.257       .  A
C320       C1601   1.493       .  S
O321       Cr328   1.989       .  S
O322       Cr328   2.031       .  S
O322        C323   1.271       .  A
C323        O324   1.254       .  A
C323        C530   1.483       .  S
O324      Cr2021   1.950       .  S
O325       Cr329   2.040   1_554  S
O325        C326   1.278       .  A
C326       C1625   1.474       .  S
Cr327      O2010   1.949       .  S
Cr327       O330   1.769       .  S
Cr328       O330   1.771       .  S
Cr329      O2007   2.034       .  S
Cr329      O2016   1.952   1_556  S
Cr329      O2022   1.770       .  S
O330      Cr2021   1.771       .  S
O331       Cr349   1.948       .  S
O331        C339   1.261       .  A
O332       Cr349   1.994       .  S
O332        C333   1.259       .  A
C333        O334   1.256       .  A
C333        C473   1.483       .  S
O334       Cr350   1.984       .  S
O335       Cr350   2.040       .  S
O335        C336   1.273       .  A
C336        O337   1.253       .  A
C336        C458   1.485       .  S
O337       Cr351   1.945       .  S
O338       Cr351   2.043       .  S
O338        C339   1.278       .  A
C339        C506   1.479       .  S
O340       Cr349   2.000       .  S
O340        C348   1.260       .  A
O341       Cr349   1.946       .  S
O341        C342   1.261       .  A
C342        O343   1.279       .  A
C342        C689   1.478       .  S
O343       Cr350   2.047       .  S
O344       Cr350   1.947       .  S
O344        C345   1.253       .  A
C345        O346   1.272       .  A
C345        C425   1.485       .  S
O346       Cr351   2.036       .  S
O347       Cr351   1.984       .  S
O347        C348   1.256       .  A
C348        C674   1.486       .  S
Cr349       O352   1.766       .  S
Cr350       O352   1.767       .  S
Cr351       O352   1.767       .  S
O353       Cr371   1.950       .  S
O353        C361   1.263       .  A
O354       Cr371   1.998   1_556  S
O354       C2047   1.259       .  A
C355        O356   1.261       .  A
C355       O2046   1.262       .  A
C355        C554   1.492       .  S
O356       Cr372   1.995       .  S
O357      Cr2064   2.032   1_554  S
O357        C358   1.270       .  A
C358        O359   1.253       .  A
C358        C449   1.485       .  S
O359       Cr373   1.950       .  S
O360       Cr373   2.058       .  S
O360        C361   1.283       .  A
C361        C569   1.499       .  S
O362       Cr371   1.998       .  S
O362        C370   1.259       .  A
O363      Cr2063   1.953       .  S
O363        C364   1.260       .  A
C364        O365   1.276       .  A
C364       C1298   1.478       .  S
O365       Cr372   2.036       .  S
O366      Cr2064   1.952       .  S
O366        C367   1.256   1_556  A
C367        O368   1.276       .  A
C367        C401   1.497   1_554  S
O368       Cr373   2.049       .  S
O369       Cr373   1.992       .  S
O369        C370   1.257       .  A
C370       C1274   1.490       .  S
Cr371      O2055   1.952   1_554  S
Cr371       O374   1.769       .  S
Cr372      O2049   2.034       .  S
Cr372      O2058   1.959       .  S
Cr372      O2066   1.770       .  S
Cr373       O374   1.768       .  S
O374      Cr2064   1.771   1_554  S
O375       Cr393   1.944       .  S
O375        C383   1.260       .  A
O376       Cr393   2.005       .  S
O376        C377   1.262       .  A
C377        O378   1.257       .  A
C377        C722   1.489       .  S
O378       Cr394   1.986       .  S
O379       Cr394   2.038       .  S
O379        C380   1.271       .  A
C380        O381   1.252       .  A
C380        C434   1.483       .  S
O381       Cr395   1.948       .  S
O382       Cr395   2.047       .  S
O382        C383   1.279       .  A
C383        C746   1.484       .  S
O384       Cr393   2.004       .  S
O384        C392   1.261       .  A
O385       Cr393   1.948       .  S
O385        C386   1.261       .  A
C386        O387   1.278       .  A
C386       C1106   1.477       .  S
O387       Cr394   2.046       .  S
O388       Cr394   1.950       .  S
O388        C389   1.254       .  A
C389        O390   1.275       .  A
C389        C410   1.487       .  S
O390       Cr395   2.044       .  S
O391       Cr395   1.992       .  S
O391        C392   1.258       .  A
C392       C1082   1.492       .  S
Cr393       O396   1.768       .  S
Cr394       O396   1.770       .  S
Cr395       O396   1.769       .  S
C397        C398   1.409       .  A
C397       C2094   1.409       .  A
C397        H407   1.083       .  S
C398        C403   1.493       .  S
C398        C399   1.405       .  A
C399        C400   1.401       .  A
C399        O404   1.373       .  S
C400       C2093   1.410       .  A
C400        H405   1.084       .  S
C401        C402   1.411   1_556  A
C401       C2092   1.412       .  A
C402       C2089   1.412   1_554  A
C402        O406   1.371       .  S
C403        C408   1.414       .  A
C403        C412   1.401       .  A
O404        H420   0.992       .  S
O406        H417   0.992       .  S
C408        C409   1.406       .  A
C408        O413   1.371       .  S
C409        C410   1.403       .  A
C409        H414   1.083       .  S
C410        C411   1.416       .  A
C411        C412   1.402       .  A
C411        O415   1.373       .  S
C412        H416   1.084       .  S
O413        H418   0.992       .  S
O415        H419   0.992       .  S
C421        C422   1.408       .  A
C421        C426   1.408       .  A
C421        H431   1.083       .  S
C422        C427   1.485       .  S
C422        C423   1.403       .  A
C423        C424   1.398       .  A
C423        O428   1.372       .  S
C424        C425   1.409       .  A
C424        H429   1.084       .  S
C425        C426   1.409       .  A
C426        O430   1.371       .  S
C427        C432   1.412       .  A
C427        C436   1.399       .  A
O428        H444   0.992       .  S
O430        H441   0.992       .  S
C432        C433   1.406       .  A
C432        O437   1.371       .  S
C433        C434   1.403       .  A
C433        H438   1.083       .  S
C434        C435   1.415       .  A
C435        C436   1.400       .  A
C435        O439   1.372       .  S
C436        H440   1.084       .  S
O437        H442   0.992       .  S
O439        H443   0.992       .  S
C445        C446   1.399       .  A
C445        C450   1.398       .  A
C445        H455   1.084       .  S
C446        C451   1.488       .  S
C446        C447   1.413       .  A
C447        C448   1.408       .  A
C447        O452   1.372       .  S
C448        C449   1.404       .  A
C448        H453   1.083       .  S
C449        C450   1.415       .  A
C450        O454   1.372       .  S
C451        C456   1.404       .  A
C451        C460   1.409       .  A
O452        H468   0.991       .  S
O454        H465   0.992       .  S
C456        C457   1.399       .  A
C456        O461   1.371       .  S
C457        C458   1.409       .  A
C457        H462   1.084       .  S
C458        C459   1.408       .  A
C459        C460   1.407       .  A
C459        O463   1.371       .  S
C460        H464   1.083       .  S
O461        H466   0.992       .  S
O463        H467   0.992       .  S
C469        C470   1.404       .  A
C469        C474   1.402       .  A
C469        H479   1.084       .  S
C470        C475   1.477       .  S
C470        C471   1.404       .  A
C471        C472   1.395       .  A
C471        O476   1.372       .  S
C472        C473   1.407       .  A
C472        H477   1.083       .  S
C473        C474   1.412       .  A
C474        O478   1.371       .  S
C475        C480   1.411       .  A
C475        C484   1.399       .  A
O476        H492   0.991       .  S
O478        H489   0.992       .  S
C480        C481   1.403       .  A
C480        O485   1.371       .  S
C481        C482   1.402       .  A
C481        H486   1.083       .  S
C482        C483   1.412       .  A
C483        C484   1.393       .  A
C483        O487   1.373       .  S
C484        H488   1.084       .  S
O485        H490   0.991       .  S
O487        H491   0.991       .  S
C493        C494   1.405       .  A
C493        C498   1.403       .  A
C493        H503   1.084       .  S
C494        C499   1.484       .  S
C494        C495   1.406       .  A
C495        C496   1.398       .  A
C495        O500   1.372       .  S
C496        C497   1.408       .  A
C496        H501   1.083       .  S
C497        C498   1.413       .  A
C498        O502   1.371       .  S
C499        C504   1.406       .  A
C499        C508   1.408       .  A
O500        H516   0.992       .  S
O502       H2205   0.992       .  S
C504        C505   1.394       .  A
C504        O509   1.372       .  S
C505        C506   1.406       .  A
C505        H510   1.084       .  S
C506        C507   1.408       .  A
C507        C508   1.407       .  A
C507        O511   1.371       .  S
C508        H512   1.083       .  S
O509        H514   0.992       .  S
O511        H515   0.992       .  S
H513       O2194   0.992       .  S
C517        C518   1.412       .  A
C517        C522   1.408       .  A
C517        H527   1.083       .  S
C518        C523   1.499       .  S
C518        C519   1.409       .  A
C519        C520   1.399       .  A
C519        O524   1.372       .  S
C520        C521   1.408       .  A
C520        H525   1.084       .  S
C521        C522   1.407       .  A
C522        O526   1.371       .  S
C523        C528   1.409       .  A
C523        C532   1.412   1_554  A
O524        H540   0.992       .  S
O526        H537   0.992       .  S
C528        C529   1.400       .  A
C528        O533   1.372       .  S
C529       C2222   1.410   1_554  A
C529        H534   1.084       .  S
C530        C531   1.407       .  A
C530       C2221   1.408       .  A
C531       C2224   1.406       .  A
C531        O535   1.371       .  S
C532       C2223   1.406       .  A
C532        H536   1.083       .  S
O533        H538   0.992       .  S
O535        H539   0.992       .  S
C541        C542   1.410       .  A
C541        C546   1.411       .  A
C541        H551   1.083       .  S
C542        C547   1.487       .  S
C542        C543   1.405       .  A
C543        C544   1.394       .  A
C543        O548   1.372       .  S
C544        C545   1.407       .  A
C544        H549   1.084       .  S
C545        C546   1.410       .  A
C546        O550   1.371       .  S
C547        C552   1.411       .  A
C547        C556   1.400       .  A
O548        H564   0.992       .  S
O550        H561   0.992       .  S
C552        C553   1.405       .  A
C552        O557   1.371       .  S
C553        C554   1.407       .  A
C553        H558   1.083       .  S
C554        C555   1.416       .  A
C555        C556   1.400       .  A
C555       O2251   1.371       .  S
C556        H560   1.084       .  S
O557        H562   0.991       .  S
O559       C2247   1.371       .  S
O559        H563   0.992   1_556  S
C565        C566   1.407       .  A
C565        C570   1.413       .  A
C565        H575   1.083       .  S
C566        C571   1.486       .  S
C566        C567   1.402       .  A
C567        C568   1.396       .  A
C567        O572   1.372       .  S
C568        C569   1.412       .  A
C568        H573   1.083       .  S
C569        C570   1.415       .  A
C570        O574   1.371       .  S
C571        C576   1.405       .  A
C571        C580   1.404       .  A
O572        H588   0.992       .  S
O574        H585   0.992       .  S
C576        C577   1.401       .  A
C576        O581   1.371       .  S
C577        C578   1.409       .  A
C577        H582   1.083       .  S
C578        C579   1.415       .  A
C579        C580   1.408       .  A
C579        O583   1.371       .  S
C580        H584   1.083       .  S
O581        H586   0.992       .  S
O583        H587   0.992       .  S
C589        C590   1.401       .  A
C589        C594   1.402       .  A
C589        H599   1.083       .  S
C590        C595   1.495       .  S
C590        C591   1.414       .  A
C591        C592   1.408       .  A
C591        O596   1.371       .  S
C592        C593   1.405       .  A
C592        H597   1.083       .  S
C593        C594   1.415       .  A
C594        O598   1.372       .  S
C595        C600   1.414       .  A
C595        C604   1.401       .  A
O596        H612   0.992       .  S
O598        H609   0.992       .  S
C600        C601   1.409       .  A
C600        O605   1.372       .  S
C601        C602   1.404       .  A
C601        H606   1.083       .  S
C602        C603   1.416       .  A
C603        C604   1.401       .  A
C603        O607   1.373       .  S
C604        H608   1.084       .  S
O605        H610   0.992       .  S
O607        H611   0.992       .  S
C613        C614   1.401       .  A
C613        C618   1.401       .  A
C613        H623   1.084       .  S
C614        C619   1.494       .  S
C614        C615   1.414       .  A
C615        C616   1.409       .  A
C615        O620   1.371       .  S
C616        C617   1.405       .  A
C616        H621   1.083       .  S
C617        C618   1.416       .  A
C618        O622   1.372       .  S
C619        C624   1.413       .  A
C619        C628   1.401       .  A
O620        H636   0.992       .  S
O622        H633   0.992       .  S
C624        C625   1.410       .  A
C624        O629   1.371       .  S
C625        C626   1.405       .  A
C625        H630   1.083       .  S
C626        C627   1.417       .  A
C627        C628   1.402       .  A
C627        O631   1.372       .  S
C628        H632   1.084       .  S
O629        H634   0.992       .  S
O631        H635   0.992       .  S
C637        C638   1.410       .  A
C637        C642   1.412       .  A
C637        H647   1.083   1_565  S
C638        C643   1.499   1_565  S
C638        C639   1.406       .  A
C639        C640   1.402       .  A
C639        O644   1.371       .  S
C640        C641   1.411       .  A
C640        H645   1.084       .  S
C641        C642   1.413       .  A
C642        O646   1.371       .  S
C643        C648   1.407       .  A
C643        C652   1.410       .  A
O644        H660   0.992       .  S
O646        H657   0.992       .  S
C648        C649   1.405       .  A
C648        O653   1.372       .  S
C649        C650   1.409       .  A
C649        H654   1.082       .  S
C650        C651   1.409       .  A
C651        C652   1.410       .  A
C651        O655   1.371       .  S
C652        H656   1.083       .  S
O653        H658   0.992       .  S
O655        H659   0.991       .  S
C661        C662   1.401       .  A
C661        C666   1.394       .  A
C661        H671   1.084       .  S
C662        C667   1.481       .  S
C662        C663   1.411       .  A
C663        C664   1.406       .  A
C663        O668   1.372       .  S
C664        C665   1.402       .  A
C664        H669   1.083       .  S
C665        C666   1.409       .  A
C666        O670   1.373       .  S
C667        C672   1.407       .  A
C667        C676   1.404       .  A
O668        H684   0.992       .  S
O670       H2373   0.992       .  S
C672        C673   1.398       .  A
C672        O677   1.372       .  S
C673        C674   1.407       .  A
C673        H678   1.083       .  S
C674        C675   1.413       .  A
C675        C676   1.401       .  A
C675        O679   1.371       .  S
C676        H680   1.084       .  S
O677        H682   0.992       .  S
O679        H683   0.992       .  S
H681       O2362   0.992       .  S
C685        C686   1.400       .  A
C685        C690   1.392       .  A
C685        H695   1.083       .  S
C686        C691   1.485       .  S
C686        C687   1.413       .  A
C687        C688   1.408       .  A
C687        O692   1.371       .  S
C688        C689   1.405       .  A
C688        H693   1.083       .  S
C689        C690   1.410       .  A
C690        O694   1.373       .  S
C691        C696   1.410       .  A
C691        C700   1.401       .  A
O692        H708   0.991       .  S
O694        H705   0.992       .  S
C696        C697   1.402       .  A
C696        O701   1.373       .  S
C697        C698   1.404       .  A
C697        H702   1.083       .  S
C698        C699   1.416       .  A
C699        C700   1.402       .  A
C699        O703   1.372       .  S
C700        H704   1.084       .  S
O701        H706   0.992       .  S
O703        H707   0.992       .  S
C709        C710   1.400   1_554  A
C709        C714   1.397       .  A
C709        H719   1.084       .  S
C710       C2407   1.483       .  S
C710       C2403   1.410       .  A
C711       C2402   1.409       .  A
C711       C2404   1.408       .  A
C711        O716   1.371       .  S
C712        C713   1.404       .  A
C712       C2403   1.408   1_554  A
C712       H2409   1.083   1_554  S
C713        C714   1.412       .  A
C714        O718   1.372       .  S
C715       C2402   1.478       .  S
C715        C720   1.405       .  A
C715        C724   1.402       .  A
O716        H732   0.992       .  S
H717       C2404   1.083       .  S
O718        H729   0.992       .  S
C720        C721   1.399       .  A
C720       O2417   1.372       .  S
C721        C722   1.408       .  A
C721        H726   1.083       .  S
C722        C723   1.414       .  A
C723        C724   1.403       .  A
C723        O727   1.371       .  S
C724        H728   1.084       .  S
O725       C2412   1.372       .  S
O725        H730   0.992   1_556  S
O727        H731   0.992       .  S
C733        C734   1.403       .  A
C733        C738   1.401       .  A
C733        H743   1.083       .  S
C734        C739   1.489       .  S
C734        C735   1.411       .  A
C735        C736   1.402       .  A
C735        O740   1.372       .  S
C736        C737   1.406       .  A
C736        H741   1.083       .  S
C737        C738   1.413       .  A
C738        O742   1.372       .  S
C739        C744   1.413       .  A
C739        C748   1.400       .  A
O740        H756   0.991       .  S
O742        H753   0.992       .  S
C744        C745   1.410       .  A
C744        O749   1.372       .  S
C745        C746   1.404       .  A
C745        H750   1.083       .  S
C746        C747   1.414       .  A
C747        C748   1.394       .  A
C747        O751   1.373       .  S
C748        H752   1.084       .  S
O749        H754   0.991       .  S
O751        H755   0.992       .  S
C757        C758   1.409       .  A
C757        C762   1.406       .  A
C757        H767   1.083       .  S
C758        C763   1.491       .  S
C758        C759   1.406       .  A
C759        C760   1.401       .  A
C759        O764   1.371       .  S
C760        C761   1.409       .  A
C760        H765   1.084       .  S
C761        C762   1.406       .  A
C762        O766   1.371       .  S
C763        C768   1.404       .  A
C763        C772   1.410       .  A
O764        H780   0.992       .  S
O766        H777   0.991       .  S
C768        C769   1.399       .  A
C768        O773   1.373       .  S
C769        C770   1.410       .  A
C769        H774   1.084       .  S
C770        C771   1.410       .  A
C771        C772   1.409       .  A
C771        O775   1.371       .  S
C772        H776   1.083       .  S
O773        H778   0.992       .  S
O775        H779   0.992       .  S
C781        C782   1.408       .  A
C781       C2478   1.405   1_554  A
C781       H2483   1.083   1_554  S
C782        C787   1.489       .  S
C782        C783   1.406       .  A
C783        C784   1.401       .  A
C783        O788   1.371       .  S
C784       C2477   1.409   1_554  A
C784        H789   1.084       .  S
C785        C786   1.408       .  A
C785       C2476   1.408       .  A
C786       C2473   1.406       .  A
C786        O790   1.371       .  S
C787        C792   1.404       .  A
C787        C796   1.409       .  A
O788        H804   0.992       .  S
O790        H801   0.992       .  S
H791       C2473   1.083       .  S
C792        C793   1.398       .  A
C792       O2489   1.373       .  S
C793        C794   1.409       .  A
C793        H798   1.084       .  S
C794        C795   1.409       .  A
C795        C796   1.409       .  A
C795        O799   1.371       .  S
C796        H800   1.083       .  S
O797       C2484   1.372       .  S
O797        H802   0.992       .  S
O799        H803   0.992       .  S
C805        C806   1.406       .  A
C805        C810   1.409       .  A
C805        H815   1.083       .  S
C806        C811   1.491       .  S
C806        C807   1.407       .  A
C807        C808   1.400       .  A
C807        O812   1.373       .  S
C808        C809   1.406       .  A
C808        H813   1.084       .  S
C809        C810   1.414       .  A
C810        O814   1.371       .  S
C811        C816   1.407       .  A
C811        C820   1.405       .  A
O812        H828   0.992       .  S
O814        H825   0.992       .  S
C816        C817   1.397       .  A
C816        O821   1.372       .  S
C817        C818   1.408       .  A
C817        H822   1.083       .  S
C818        C819   1.417       .  A
C819        C820   1.410       .  A
C819        O823   1.371       .  S
C820        H824   1.083       .  S
O821        H826   0.992       .  S
O823        H827   0.992       .  S
C829        C830   1.404       .  A
C829        C834   1.406       .  A
C829        H839   1.083       .  S
C830        C835   1.481       .  S
C830        C831   1.406       .  A
C831        C832   1.397       .  A
C831        O836   1.372       .  S
C832        C833   1.403       .  A
C832        H837   1.084       .  S
C833        C834   1.410       .  A
C834        O838   1.370       .  S
C835        C840   1.406       .  A
C835        C844   1.401       .  A
O836        H852   0.992       .  S
O838        H849   0.992       .  S
C840        C841   1.401       .  A
C840        O845   1.372       .  S
C841        C842   1.408       .  A
C841        H846   1.083       .  S
C842        C843   1.416       .  A
C843        C844   1.403       .  A
C843        O847   1.372       .  S
C844        H848   1.084       .  S
O845        H850   0.991       .  S
O847        H851   0.992       .  S
C853        C854   1.407       .  A
C853        C858   1.403       .  A
C853        H863   1.083       .  S
C854        C859   1.497       .  S
C854        C855   1.413       .  A
C855        C856   1.404       .  A
C855        O860   1.371       .  S
C856        C857   1.404       .  A
C856       H2553   1.084       .  S
C857        C858   1.408       .  A
C858        O862   1.372       .  S
C859        C864   1.412       .  A
C859        C868   1.408       .  A
O860        H876   0.992       .  S
H861       C2548   1.084       .  S
O862        H873   0.992       .  S
C864        C865   1.401       .  A
C864        O869   1.372       .  S
C865        C866   1.404       .  A
C865        H870   1.084       .  S
C866        C867   1.411       .  A
C867        C868   1.407       .  A
C867        O871   1.371       .  S
C868        H872   1.083       .  S
O869        H874   0.992       .  S
O871        H875   0.992       .  S
C877        C878   1.401       .  A
C877        C882   1.400       .  A
C877        H887   1.084       .  S
C878        C883   1.486       .  S
C878        C879   1.409       .  A
C879        C880   1.407       .  A
C879        O884   1.371       .  S
C880        C881   1.406       .  A
C880        H885   1.082       .  S
C881        C882   1.413       .  A
C882        O886   1.372       .  S
C883        C888   1.408       .  A
C883        C892   1.403       .  A
O884        H900   0.992       .  S
O886        H897   0.992       .  S
C888        C889   1.403       .  A
C888        O893   1.372       .  S
C889        C890   1.407       .  A
C889        H894   1.083       .  S
C890        C891   1.413       .  A
C891        C892   1.403       .  A
C891        O895   1.372       .  S
C892        H896   1.084       .  S
O893        H898   0.992       .  S
O895        H899   0.992       .  S
C901        C902   1.401       .  A
C901        C906   1.403       .  A
C901        H911   1.084       .  S
C902        C907   1.490       .  S
C902        C903   1.413       .  A
C903        C904   1.406       .  A
C903        O908   1.371       .  S
C904        C905   1.403       .  A
C904        H909   1.084       .  S
C905        C906   1.413       .  A
C906        O910   1.373       .  S
C907        C916   1.401       .  A
C907       C2604   1.412       .  A
O908        H924   0.991       .  S
O910        H921   0.992       .  S
C912        C913   1.411       .  A
C912       C2599   1.414       .  A
C912        O917   1.371       .  S
C913        C914   1.406   1_556  A
C913        H918   1.083   1_556  S
C914       C2607   1.414   1_554  A
C915        C916   1.398       .  A
C915       C2606   1.411       .  A
C915        O919   1.373       .  S
C916        H920   1.084       .  S
O917        H922   0.992       .  S
O919        H923   0.992       .  S
C925       C2618   1.404       .  A
C925       C2622   1.409   1_554  A
C925        H935   1.083       .  S
C926       C2623   1.481       .  S
C926        C927   1.404       .  A
C926       C2617   1.405       .  A
C927        C928   1.394       .  A
C927        O932   1.372       .  S
C928        C929   1.406       .  A
C928        H933   1.084       .  S
C929        C930   1.413       .  A
C930       C2617   1.409       .  A
C930       O2626   1.371       .  S
C931       C2618   1.482       .  S
C931        C936   1.406       .  A
C931        C940   1.404       .  A
O932        H948   0.992       .  S
O934       C2622   1.370   1_554  S
O934       H2637   0.991       .  S
C936        C937   1.400       .  A
C936        O941   1.371       .  S
C937        C938   1.406       .  A
C937        H942   1.084       .  S
C938        C939   1.409       .  A
C939        C940   1.405       .  A
C939        O943   1.371       .  S
C940       H2636   1.084       .  S
O941        H946   0.992       .  S
O943        H947   0.992       .  S
H944       C2632   1.084       .  S
H945       O2626   0.992       .  S
C949        C950   1.397       .  A
C949        C954   1.397       .  A
C949        H959   1.084       .  S
C950        C955   1.477       .  S
C950        C951   1.407       .  A
C951        C952   1.404       .  A
C951        O956   1.372       .  S
C952        C953   1.407       .  A
C952        H957   1.083       .  S
C953        C954   1.418       .  A
C954        O958   1.372       .  S
C955        C960   1.403       .  A
C955        C964   1.406       .  A
O956        H972   0.992       .  S
O958        H969   0.992       .  S
C960        C961   1.391       .  A
C960        O965   1.372       .  S
C961        C962   1.407       .  A
C961        H966   1.084       .  S
C962        C963   1.409       .  A
C963        C964   1.407       .  A
C963        O967   1.371       .  S
C964        H968   1.083       .  S
O965        H970   0.992       .  S
O967        H971   0.991       .  S
C973        C974   1.401       .  A
C973        C978   1.398       .  A
C973        H983   1.084       .  S
C974        C979   1.485       .  S
C974        C975   1.410       .  A
C975        C976   1.402       .  A
C975        O980   1.371       .  S
C976        C977   1.406       .  A
C976        H981   1.083       .  S
C977        C978   1.415       .  A
C978       O2674   1.372       .  S
C979        C984   1.413       .  A
C979        C988   1.401       .  A
O980        H996   0.992       .  S
O982       C2670   1.372       .  S
O982        H993   0.992       .  S
C984        C985   1.405       .  A
C984        O989   1.371       .  S
C985        C986   1.402       .  A
C985        H990   1.083       .  S
C986        C987   1.410       .  A
C987        C988   1.395       .  A
C987        O991   1.373       .  S
C988        H992   1.084       .  S
O989        H994   0.991       .  S
O991        H995   0.992       .  S
C997        C998   1.400       .  A
C997       C1002   1.394       .  A
C997       H1007   1.084       .  S
C998       C1003   1.482       .  S
C998        C999   1.411       .  A
C999       C1000   1.408       .  A
C999       O1004   1.372       .  S
C1000      C1001   1.404       .  A
C1000      H1005   1.083       .  S
C1001      C1002   1.411       .  A
C1002      O1006   1.373       .  S
C1003      C1008   1.406       .  A
C1003      C1012   1.404       .  A
O1004      H1020   0.992       .  S
O1006      H1017   0.992       .  S
C1008      C1009   1.399       .  A
C1008      O1013   1.372       .  S
C1009      C1010   1.409       .  A
C1009      H1014   1.083       .  S
C1010      C1011   1.413       .  A
C1011      C1012   1.403       .  A
C1011      O1015   1.372       .  S
C1012      H1016   1.084       .  S
O1013      H1018   0.992       .  S
O1015      H1019   0.992       .  S
C1021      C1022   1.401       .  A
C1021      C1026   1.404       .  A
C1021      H1031   1.084       .  S
C1022      C1027   1.488       .  S
C1022      C1023   1.410       .  A
C1023      C1024   1.407       .  A
C1023      O1028   1.371       .  S
C1024      C1025   1.405       .  A
C1024      H1029   1.083       .  S
C1025      C1026   1.414       .  A
C1026      O1030   1.372       .  S
C1027      C1032   1.406       .  A
C1027      C1036   1.405       .  A
O1028      H1044   0.991       .  S
O1030      H1041   0.992       .  S
C1032      C1033   1.404       .  A
C1032      O1037   1.371       .  S
C1033      C1034   1.408       .  A
C1033      H1038   1.084       .  S
C1034      C1035   1.409       .  A
C1035      C1036   1.407       .  A
C1035      O1039   1.371       .  S
C1036      H1040   1.083       .  S
O1037      H1042   0.992       .  S
O1039      H1043   0.992       .  S
C1045      C1046   1.410       .  A
C1045      C1050   1.411       .  A
C1045      H1055   1.083       .  S
C1046      C1051   1.487   1_565  S
C1046      C1047   1.404       .  A
C1047      C1048   1.390       .  A
C1047      O1052   1.373       .  S
C1048      C1049   1.410       .  A
C1048      H1053   1.083       .  S
C1049      C1050   1.412       .  A
C1050      O1054   1.371       .  S
C1051      C1056   1.404       .  A
C1051      C1060   1.410       .  A
O1052      H1068   0.992       .  S
O1054      H1065   0.991       .  S
C1056      C1057   1.397       .  A
C1056      O1061   1.372       .  S
C1057      C1058   1.410       .  A
C1057      H1062   1.083       .  S
C1058      C1059   1.409       .  A
C1059      C1060   1.406       .  A
C1059      O1063   1.371       .  S
C1060      H1064   1.084       .  S
O1061      H1066   0.991       .  S
O1063      H1067   0.992       .  S
C1069      C1070   1.408       .  A
C1069      C1074   1.411       .  A
C1069      H1079   1.083       .  S
C1070      C1075   1.488       .  S
C1070      C1071   1.405       .  A
C1071      C1072   1.397       .  A
C1071      O1076   1.372       .  S
C1072      C1073   1.409       .  A
C1072      H1077   1.084       .  S
C1073      C1074   1.412       .  A
C1074      O1078   1.371       .  S
C1075      C1080   1.410       .  A
C1075      C1084   1.402       .  A
O1076      H1092   0.992       .  S
O1078      H1089   0.992       .  S
C1080      C1081   1.405       .  A
C1080      O1085   1.371       .  S
C1081      C1082   1.407       .  A
C1081      H1086   1.083       .  S
C1082      C1083   1.415       .  A
C1083      C1084   1.403       .  A
C1083      O1087   1.372       .  S
C1084      H1088   1.084       .  S
O1085      H1090   0.991       .  S
O1087      H1091   0.991       .  S
C1093      C1094   1.403       .  A
C1093      C1098   1.404       .  A
C1093      H2795   1.084       .  S
C1094      C2791   1.481       .  S
C1094      C1095   1.406       .  A
C1095      C1096   1.397       .  A
C1095      O1100   1.372       .  S
C1096      C1097   1.406       .  A
C1096      H1101   1.083       .  S
C1097      C1098   1.413       .  A
C1098      O1102   1.372       .  S
C1099      C2786   1.487       .  S
C1099      C1104   1.407       .  A
C1099      C2800   1.410       .  A
O1100      H1116   0.992   1_554  S
O1102      H1113   0.992       .  S
H1103      C2785   1.084       .  S
C1104      C1105   1.394       .  A
C1104      O1109   1.372       .  S
C1105      C1106   1.403       .  A
C1105      H1110   1.084       .  S
C1106      C1107   1.408       .  A
C1107      C2800   1.409       .  A
C1107      O2803   1.371       .  S
C1108      C2791   1.407       .  A
C1108      C2799   1.406       .  A
C1108      H1112   1.083       .  S
O1109      H1114   0.992       .  S
O1111      C2799   1.371       .  S
O1111      H2807   0.992       .  S
H1115      O2803   0.992       .  S
C1117      C1118   1.409       .  A
C1117      C1122   1.410       .  A
C1117      H1127   1.083       .  S
C1118      C2815   1.491       .  S
C1118      C2811   1.406   1_556  A
C1119      C2810   1.404       .  A
C1119      C2812   1.391       .  A
C1119      O1124   1.373       .  S
C1120      C1121   1.409       .  A
C1120      C2811   1.398       .  A
C1120      H1125   1.084       .  S
C1121      C1122   1.410   1_554  A
C1122      O1126   1.371       .  S
C1123      C2810   1.481       .  S
C1123      C1128   1.409       .  A
C1123      C1132   1.400       .  A
O1124      H1140   0.992       .  S
O1126      H1137   0.992       .  S
C1128      C1129   1.401       .  A
C1128      O2825   1.371       .  S
C1129      C1130   1.404       .  A
C1129      H1134   1.083       .  S
C1130      C1131   1.416       .  A
C1131      C1132   1.399       .  A
C1131      O1135   1.372       .  S
C1132      H1136   1.084       .  S
O1133      C2820   1.371       .  S
O1133      H1138   0.992       .  S
O1135      H1139   0.992       .  S
C1141      C1142   1.404       .  A
C1141      C1146   1.404       .  A
C1141      H1151   1.084       .  S
C1142      C1147   1.478       .  S
C1142      C1143   1.404       .  A
C1143      C1144   1.396       .  A
C1143      O1148   1.373       .  S
C1144      C1145   1.406       .  A
C1144      H1149   1.084       .  S
C1145      C1146   1.412       .  A
C1146      O1150   1.371       .  S
C1147      C1152   1.405       .  A
C1147      C1156   1.404       .  A
O1148      H1164   0.992       .  S
O1150      H1161   0.992       .  S
C1152      C1153   1.393       .  A
C1152      O1157   1.372       .  S
C1153      C1154   1.405       .  A
C1153      H1158   1.084       .  S
C1154      C1155   1.411       .  A
C1155      C1156   1.407       .  A
C1155      O1159   1.371       .  S
C1156      H1160   1.083       .  S
O1157      H1162   0.992       .  S
O1159      H1163   0.992       .  S
C1165      C1166   1.411       .  A
C1165      C1170   1.409       .  A
C1165      H1175   1.083       .  S
C1166      C1171   1.491       .  S
C1166      C1167   1.404       .  A
C1167      C1168   1.397       .  A
C1167      O1172   1.372       .  S
C1168      C1169   1.410       .  A
C1168      H1173   1.084       .  S
C1169      C1170   1.408       .  A
C1170      O1174   1.371       .  S
C1171      C1176   1.406       .  A
C1171      C1180   1.410   1_554  A
O1172      H2880   0.992       .  S
O1174      H1185   0.992       .  S
C1176      C2869   1.401       .  A
C1176      O1181   1.372       .  S
C1177      C1178   1.411       .  A
C1177      C2868   1.403       .  A
C1177      H1182   1.084       .  S
C1178      C2871   1.407       .  A
C1179      C1180   1.405       .  A
C1179      C2870   1.406       .  A
C1179      O1183   1.371       .  S
C1180      H1184   1.083       .  S
O1181      H2878   0.992       .  S
O1183      H2879   0.992       .  S
H1186      O2873   0.992       .  S
H1187      O2875   0.991       .  S
H1188      O2864   0.992       .  S
C1189      C1190   1.407       .  A
C1189      C1194   1.407       .  A
C1189      H1199   1.083       .  S
C1190      C1195   1.490       .  S
C1190      C1191   1.408       .  A
C1191      C1192   1.398       .  A
C1191      O1196   1.372       .  S
C1192      C1193   1.405       .  A
C1192      H1197   1.084       .  S
C1193      C1194   1.411       .  A
C1194      O1198   1.371       .  S
C1195      C1200   1.412       .  A
C1195      C1204   1.402       .  A
O1196      H1212   0.991       .  S
O1198      H1209   0.992       .  S
C1200      C1201   1.409       .  A
C1200      O1205   1.371       .  S
C1201      C1202   1.406       .  A
C1201      H1206   1.083       .  S
C1202      C1203   1.410       .  A
C1203      C1204   1.397       .  A
C1203      O2899   1.373       .  S
C1204      H1208   1.084       .  S
O1205      H1210   0.992       .  S
O1207      C2895   1.373       .  S
O1207      H1211   0.992       .  S
C1213      C1214   1.399       .  A
C1213      C1218   1.399       .  A
C1213      H1223   1.084       .  S
C1214      C1219   1.474       .  S
C1214      C1215   1.408       .  A
C1215      C1216   1.398       .  A
C1215      O1220   1.372       .  S
C1216      C1217   1.405       .  A
C1216      H1221   1.083       .  S
C1217      C1218   1.413       .  A
C1218      O1222   1.372       .  S
C1219      C1224   1.407       .  A
C1219      C1228   1.395       .  A
O1220      H1236   0.992       .  S
O1222      H1233   0.992       .  S
C1224      C1225   1.406       .  A
C1224      O1229   1.371       .  S
C1225      C1226   1.407       .  A
C1225      H1230   1.083       .  S
C1226      C1227   1.419       .  A
C1227      C1228   1.389       .  A
C1227      O1231   1.372       .  S
C1228      H1232   1.084       .  S
O1229      H1234   0.992       .  S
O1231      H1235   0.992       .  S
C1237      C1238   1.408       .  A
C1237      C1242   1.405       .  A
C1237      H1247   1.083       .  S
C1238      C1243   1.486       .  S
C1238      C1239   1.405       .  A
C1239      C1240   1.398       .  A
C1239      O1244   1.372       .  S
C1240      C1241   1.409       .  A
C1240      H1245   1.084       .  S
C1241      C1242   1.408       .  A
C1242      O1246   1.371       .  S
C1243      C1248   1.405       .  A
C1243      C1252   1.408       .  A
O1244      H1260   0.992       .  S
O1246      H1257   0.992       .  S
C1248      C1249   1.400       .  A
C1248      O1253   1.373       .  S
C1249      C1250   1.408       .  A
C1249      H1254   1.084       .  S
C1250      C1251   1.406       .  A
C1251      C1252   1.405       .  A
C1251      O1255   1.371       .  S
C1252      H1256   1.083       .  S
O1253      H1258   0.992       .  S
O1255      H1259   0.991       .  S
C1261      C1262   1.401       .  A
C1261      C1266   1.393       .  A
C1261      H1271   1.084       .  S
C1262      C1267   1.490       .  S
C1262      C1263   1.414       .  A
C1263      C1264   1.411       .  A
C1263      O1268   1.373       .  S
C1264      C1265   1.404       .  A
C1264      H1269   1.083       .  S
C1265      C1266   1.410       .  A
C1266      O1270   1.373       .  S
C1267      C1272   1.409       .  A
C1267      C1276   1.406       .  A
O1268      H1284   0.993       .  S
O1270      H1281   0.992       .  S
C1272      C1273   1.401       .  A
C1272      O1277   1.371       .  S
C1273      C1274   1.408       .  A
C1273      H1278   1.083       .  S
C1274      C1275   1.412       .  A
C1275      C1276   1.403       .  A
C1275      O1279   1.371       .  S
C1276      H1280   1.084       .  S
O1277      H1282   0.992       .  S
O1279      H1283   0.992       .  S
C1285      C1286   1.402       .  A
C1285      C1290   1.398       .  A
C1285      H1295   1.084       .  S
C1286      C1291   1.485       .  S
C1286      C1287   1.410       .  A
C1287      C1288   1.405       .  A
C1287      O1292   1.372       .  S
C1288      C1289   1.405       .  A
C1288      H1293   1.083       .  S
C1289      C1290   1.412       .  A
C1290      O1294   1.372       .  S
C1291      C1296   1.410       .  A
C1291      C1300   1.402       .  A
O1292      H1308   0.992       .  S
O1294      H1305   0.992       .  S
C1296      C1297   1.406       .  A
C1296      O1301   1.371       .  S
C1297      C1298   1.405       .  A
C1297      H1302   1.084       .  S
C1298      C1299   1.409       .  A
C1299      C1300   1.397       .  A
C1299      O2995   1.373       .  S
C1300      H1304   1.084       .  S
O1301      H1306   0.991       .  S
O1303      C2991   1.373       .  S
O1303      H1307   0.992       .  S
C1309      C1310   1.399       .  A
C1309      C1314   1.401       .  A
C1309      H1319   1.084       .  S
C1310      C1315   1.487   1_655  S
C1310      C1311   1.412       .  A
C1311      C1312   1.407       .  A
C1311      O1316   1.371   1_655  S
C1312      C1313   1.404       .  A
C1312      H1317   1.083       .  S
C1313      C1314   1.415       .  A
C1314      O1318   1.373       .  S
C1315      C1320   1.412       .  A
C1315      C1324   1.399       .  A
O1316      H1332   0.992       .  S
O1318      H1329   0.992       .  S
C1320      C1321   1.408       .  A
C1320      O1325   1.371   1_455  S
C1321      C1322   1.405       .  A
C1321      H1326   1.083       .  S
C1322      C1323   1.417       .  A
C1323      C1324   1.399       .  A
C1323      O1327   1.372       .  S
C1324      H1328   1.084       .  S
O1325      H1330   0.992       .  S
O1327      H1331   0.992       .  S
C1333      C1334   1.402       .  A
C1333      C1338   1.399       .  A
C1333      H1343   1.084       .  S
C1334      C1339   1.483       .  S
C1334      C1335   1.409       .  A
C1335      C1336   1.405       .  A
C1335      O1340   1.372       .  S
C1336      C1337   1.405       .  A
C1336      H1341   1.083       .  S
C1337      C1338   1.412       .  A
C1338      O1342   1.372       .  S
C1339      C1344   1.409       .  A
C1339      C1348   1.402       .  A
O1340      H1356   0.992       .  S
O1342      H1353   0.991       .  S
C1344      C1345   1.407       .  A
C1344      O1349   1.372       .  S
C1345      C1346   1.405       .  A
C1345      H1350   1.083       .  S
C1346      C1347   1.410       .  A
C1347      C1348   1.396       .  A
C1347      O1351   1.372       .  S
C1348      H1352   1.084       .  S
O1349      H1354   0.992       .  S
O1351      H3047   0.992       .  S
H1355      O3043   0.992       .  S
C1357      C1358   1.408       .  A
C1357      C1362   1.413       .  A
C1357      H1367   1.083       .  S
C1358      C1363   1.488       .  S
C1358      C1359   1.403       .  A
C1359      C1360   1.396       .  A
C1359      O1364   1.372       .  S
C1360      C1361   1.410       .  A
C1360      H1365   1.083       .  S
C1361      C1362   1.413       .  A
C1362      O1366   1.371       .  S
C1363      C1368   1.409       .  A
C1363      C1372   1.402       .  A
O1364      H1380   0.992       .  S
O1366      H1377   0.991       .  S
C1368      C1369   1.403       .  A
C1368      O1373   1.371       .  S
C1369      C1370   1.406       .  A
C1369      H1374   1.083       .  S
C1370      C1371   1.416       .  A
C1371      C1372   1.405       .  A
C1371      O1375   1.372       .  S
C1372      H1376   1.084       .  S
O1373      H1378   0.992       .  S
O1375      H1379   0.992       .  S
C1381      C1382   1.398       .  A
C1381      C1386   1.394       .  A
C1381      H1391   1.084       .  S
C1382      C1387   1.479       .  S
C1382      C1383   1.408       .  A
C1383      C1384   1.406       .  A
C1383      O1388   1.371       .  S
C1384      C1385   1.408       .  A
C1384      H1389   1.083       .  S
C1385      C1386   1.415       .  A
C1386      O1390   1.372       .  S
C1387      C1392   1.411       .  A
C1387      C1396   1.400       .  A
O1388      H1404   0.991       .  S
O1390      H1401   0.992       .  S
C1392      C1393   1.404       .  A
C1392      O1397   1.372       .  S
C1393      C1394   1.401       .  A
C1393      H1398   1.083       .  S
C1394      C1395   1.410       .  A
C1395      C1396   1.398       .  A
C1395      O1399   1.373       .  S
C1396      H1400   1.084       .  S
O1397      H1402   0.992       .  S
O1399      H1403   0.992       .  S
C1405      C1406   1.400       .  A
C1405      C1410   1.395       .  A
C1405      H1415   1.084       .  S
C1406      C1411   1.478       .  S
C1406      C1407   1.409       .  A
C1407      C1408   1.405       .  A
C1407      O1412   1.372       .  S
C1408      C1409   1.403       .  A
C1408      H1413   1.083       .  S
C1409      C1410   1.412       .  A
C1410      O1414   1.373       .  S
C1411      C1416   1.405       .  A
C1411      C1420   1.404       .  A
O1412      H1428   0.992       .  S
O1414      H1425   0.993       .  S
C1416      C1417   1.396       .  A
C1416      O1421   1.372       .  S
C1417      C1418   1.408       .  A
C1417      H1422   1.083       .  S
C1418      C1419   1.413       .  A
C1419      C1420   1.404       .  A
C1419      O3115   1.371       .  S
C1420      H1424   1.084       .  S
O1421      H1426   0.992       .  S
O1423      C3111   1.371       .  S
O1423      H1427   0.992   1_556  S
C1429      C1430   1.401       .  A
C1429      C1434   1.401       .  A
C1429      H1439   1.084       .  S
C1430      C1435   1.491       .  S
C1430      C1431   1.413       .  A
C1431      C1432   1.409       .  A
C1431      O1436   1.372       .  S
C1432      C1433   1.403       .  A
C1432      H1437   1.084       .  S
C1433      C1434   1.414       .  A
C1434      O1438   1.373       .  S
C1435      C1440   1.405       .  A
C1435      C3136   1.408       .  A
O1436      H1452   0.992       .  S
O1438      H1449   0.992       .  S
C1440      C1441   1.402       .  A
C1440      O1445   1.373       .  S
C1441      C3134   1.410       .  A
C1441      H1446   1.083       .  S
C1442      C1443   1.408   1_556  A
C1442      C3133   1.409       .  A
C1443      C1444   1.406   1_554  A
C1443      O1447   1.371       .  S
C1444      C3127   1.408       .  A
C1444      H1448   1.083   1_556  S
O1445      H1450   0.992       .  S
O1447      H1451   0.991       .  S
C1453      C1454   1.406       .  A
C1453      C1458   1.406       .  A
C1453      H1463   1.083       .  S
C1454      C1459   1.476       .  S
C1454      C1455   1.403       .  A
C1455      C1456   1.392       .  A
C1455      O1460   1.372       .  S
C1456      C1457   1.406       .  A
C1456      H1461   1.084       .  S
C1457      C1458   1.409       .  A
C1458      O1462   1.371       .  S
C1459      C1464   1.404       .  A
C1459      C1468   1.402       .  A
O1460      H1476   0.992       .  S
O1462      H1473   0.992       .  S
C1464      C1465   1.398       .  A
C1464      O1469   1.372       .  S
C1465      C1466   1.408       .  A
C1465      H1470   1.083       .  S
C1466      C1467   1.413       .  A
C1467      C1468   1.402       .  A
C1467      O1471   1.371       .  S
C1468      H1472   1.084       .  S
O1469      H1474   0.992       .  S
O1471      H1475   0.992       .  S
C1477      C1478   1.400   1_554  A
C1477      C1482   1.396       .  A
C1477      H1487   1.084       .  S
C1478      C3175   1.484       .  S
C1478      C3171   1.411       .  A
C1479      C3170   1.412       .  A
C1479      C3172   1.412       .  A
C1479      O1484   1.371       .  S
C1480      C1481   1.403   1_556  A
C1480      C3171   1.408       .  A
C1480      H1485   1.083       .  S
C1481      C1482   1.411       .  A
C1482      O1486   1.373       .  S
C1483      C3170   1.486       .  S
C1483      C1488   1.407       .  A
C1483      C1492   1.404       .  A
O1484      H1500   0.992       .  S
O1486      H1497   0.992       .  S
C1488      C1489   1.402       .  A
C1488      O3185   1.372       .  S
C1489      C1490   1.409       .  A
C1489      H1494   1.083       .  S
C1490      C1491   1.415       .  A
C1491      C1492   1.406       .  A
C1491      O1495   1.371       .  S
C1492      H1496   1.084       .  S
O1493      C3180   1.372       .  S
O1493      H1498   0.992       .  S
O1495      H1499   0.992       .  S
C1501      C3194   1.407       .  A
C1501      C3198   1.406       .  A
C1501      H1511   1.083       .  S
C1502      C3199   1.490       .  S
C1502      C1503   1.408       .  A
C1502      C3193   1.410       .  A
C1503      C1504   1.397       .  A
C1503      O1508   1.372       .  S
C1504      C1505   1.406       .  A
C1504      H1509   1.084       .  S
C1505      C1506   1.406       .  A
C1506      C3193   1.407       .  A
C1506      O3202   1.371       .  S
C1507      C3194   1.480       .  S
C1507      C1512   1.405       .  A
C1507      C1516   1.402       .  A
O1508      H1524   0.992       .  S
O1510      C3198   1.371       .  S
O1510      H3213   0.992       .  S
C1512      C1513   1.399       .  A
C1512      O1517   1.372       .  S
C1513      C1514   1.408       .  A
C1513      H1518   1.083       .  S
C1514      C1515   1.413       .  A
C1515      C1516   1.404       .  A
C1515      O1519   1.371       .  S
C1516      H3212   1.084       .  S
O1517      H1522   0.992       .  S
O1519      H1523   0.992       .  S
H1520      C3208   1.083       .  S
H1521      O3202   0.991       .  S
C1525      C1526   1.405       .  A
C1525      C1530   1.404       .  A
C1525      H1535   1.084       .  S
C1526      C1531   1.483       .  S
C1526      C1527   1.406       .  A
C1527      C1528   1.400       .  A
C1527      O1532   1.372       .  S
C1528      C1529   1.407       .  A
C1528      H1533   1.083       .  S
C1529      C1530   1.413       .  A
C1530      O1534   1.371       .  S
C1531      C1536   1.411       .  A
C1531      C1540   1.398       .  A
O1532      H1548   0.992       .  S
O1534      H1545   0.992       .  S
C1536      C1537   1.408       .  A
C1536      O1541   1.371       .  S
C1537      C1538   1.406       .  A
C1537      H1542   1.083       .  S
C1538      C1539   1.415       .  A
C1539      C1540   1.394       .  A
C1539      O1543   1.372       .  S
C1540      H1544   1.084       .  S
O1541      H1546   0.992       .  S
O1543      H1547   0.991       .  S
C1549      C1550   1.410       .  A
C1549      C1554   1.408       .  A
C1549      H1559   1.083   1_655  S
C1550      C1555   1.493   1_655  S
C1550      C1551   1.406       .  A
C1551      C1552   1.402       .  A
C1551      O1556   1.373       .  S
C1552      C1553   1.408       .  A
C1552      H1557   1.084       .  S
C1553      C1554   1.408       .  A
C1554      O1558   1.371       .  S
C1555      C1560   1.415       .  A
C1555      C1564   1.400       .  A
O1556      H1572   0.992       .  S
O1558      H1569   0.991       .  S
C1560      C1561   1.408       .  A
C1560      O1565   1.371   1_455  S
C1561      C1562   1.403       .  A
C1561      H1566   1.083       .  S
C1562      C1563   1.416       .  A
C1563      C1564   1.400       .  A
C1563      O1567   1.372       .  S
C1564      H1568   1.084       .  S
O1565      H1570   0.991       .  S
O1567      H1571   0.992       .  S
C1573      C1574   1.407       .  A
C1573      C1578   1.407       .  A
C1573      H1583   1.083       .  S
C1574      C1579   1.489       .  S
C1574      C1575   1.405       .  A
C1575      C1576   1.403       .  A
C1575      O1580   1.372       .  S
C1576      C1577   1.409       .  A
C1576      H1581   1.084       .  S
C1577      C1578   1.408       .  A
C1578      O1582   1.371       .  S
C1579      C1584   1.413       .  A
C1579      C1588   1.399       .  A
O1580      H1596   0.991       .  S
O1582      H1593   0.992       .  S
C1584      C1585   1.409       .  A
C1584      O1589   1.371       .  S
C1585      C1586   1.405       .  A
C1585      H1590   1.083       .  S
C1586      C1587   1.416       .  A
C1587      C1588   1.400       .  A
C1587      O1591   1.372       .  S
C1588      H1592   1.084       .  S
O1589      H1594   0.992       .  S
O1591      H1595   0.991       .  S
C1597      C1598   1.401       .  A
C1597      C1602   1.402       .  A
C1597      H1607   1.084       .  S
C1598      C1603   1.486       .  S
C1598      C1599   1.408       .  A
C1599      C1600   1.404       .  A
C1599      O1604   1.371       .  S
C1600      C1601   1.408       .  A
C1600      H1605   1.083       .  S
C1601      C1602   1.415       .  A
C1602      O1606   1.371       .  S
C1603      C1608   1.411       .  A
C1603      C1612   1.399       .  A
O1604      H1620   0.992       .  S
O1606      H1617   0.992       .  S
C1608      C1609   1.409       .  A
C1608      O1613   1.371       .  S
C1609      C1610   1.405       .  A
C1609      H1614   1.083       .  S
C1610      C1611   1.416       .  A
C1611      C1612   1.396       .  A
C1611      O1615   1.373       .  S
C1612      H1616   1.084       .  S
O1613      H1618   0.991       .  S
O1615      H1619   0.991       .  S
C1621      C1622   1.400       .  A
C1621      C1626   1.395       .  A
C1621      H1631   1.084       .  S
C1622      C1627   1.481       .  S
C1622      C1623   1.411       .  A
C1623      C1624   1.406       .  A
C1623      O1628   1.372       .  S
C1624      C1625   1.402       .  A
C1624      H1629   1.083       .  S
C1625      C1626   1.410       .  A
C1626      O3322   1.373       .  S
C1627      C1632   1.406       .  A
C1627      C1636   1.404       .  A
O1628      H1644   0.992       .  S
O1630      C3318   1.373       .  S
O1630      H1641   0.992       .  S
C1632      C1633   1.396       .  A
C1632      O1637   1.372       .  S
C1633      C1634   1.407       .  A
C1633      H1638   1.083       .  S
C1634      C1635   1.414       .  A
C1635      C1636   1.404       .  A
C1635      O1639   1.371       .  S
C1636      H1640   1.084       .  S
O1637      H1642   0.992       .  S
O1639      H1643   0.992       .  S
C1645      C1646   1.402       .  A
C1645      C1650   1.399       .  A
C1645      H1655   1.083       .  S
C1646      C1651   1.486       .  S
C1646      C1647   1.411       .  A
C1647      C1648   1.402       .  A
C1647      O1652   1.371       .  S
C1648      C1649   1.405       .  A
C1648      H1653   1.083       .  S
C1649      C1650   1.414       .  A
C1650      O3346   1.372   1_554  S
C1651      C1656   1.412       .  A
C1651      C1660   1.400       .  A
O1652      H1668   0.991       .  S
O1654      C3342   1.372       .  S
O1654      H1665   0.992       .  S
C1656      C1657   1.409       .  A
C1656      O1661   1.372       .  S
C1657      C1658   1.404       .  A
C1657      H1662   1.083       .  S
C1658      C1659   1.413       .  A
C1659      C1660   1.392       .  A
C1659      O1663   1.373       .  S
C1660      H1664   1.084       .  S
O1661      H1666   0.992       .  S
O1663      H1667   0.992       .  S
C1669      C1670   1.401       .  A
C1669      C1674   1.404       .  A
C1669      H1679   1.084       .  S
C1670      C1675   1.484       .  S
C1670      C1671   1.409       .  A
C1671      C1672   1.404       .  A
C1671      O1676   1.372       .  S
C1672      C1673   1.406       .  A
C1672      H1677   1.083       .  S
C1673      C1674   1.414       .  A
C1674      O1678   1.372       .  S
C1675      C1680   1.402       .  A
C1675      C1684   1.408       .  A
O1676      H1692   0.992       .  S
O1678      H1689   0.992       .  S
C1680      C1681   1.391       .  A
C1680      O1685   1.372       .  S
C1681      C1682   1.410       .  A
C1681      H1686   1.083       .  S
C1682      C1683   1.414       .  A
C1683      C1684   1.414       .  A
C1683      O1687   1.371       .  S
C1684      H1688   1.083       .  S
O1685      H1690   0.992       .  S
O1687      H1691   0.991       .  S
O1693     Cr1711   1.944       .  S
O1693      C1701   1.262       .  A
O1694     Cr1711   1.998       .  S
O1694      C1695   1.256       .  A
C1695      O1696   1.254       .  A
C1695      C3365   1.488       .  S
O1696     Cr1712   1.989       .  S
O1697     Cr1712   2.035       .  S
O1697      C1698   1.272       .  A
C1698      O1699   1.254       .  A
C1698      C3254   1.487       .  S
O1699     Cr1713   1.947       .  S
O1700     Cr1713   2.041       .  S
O1700      C1701   1.280       .  A
C1701      C3350   1.478       .  S
O1702     Cr1711   2.000       .  S
O1702      C1710   1.258       .  A
O1703     Cr1711   1.943       .  S
O1703      C1704   1.262       .  A
C1704      O1705   1.282       .  A
C1704      C3302   1.477       .  S
O1705     Cr1712   2.047       .  S
O1706     Cr1712   1.955       .  S
O1706      C1707   1.255       .  A
C1707      O1708   1.270       .  A
C1707      C3278   1.486       .  S
O1708     Cr1713   2.027       .  S
O1709     Cr1713   1.989       .  S
O1709      C1710   1.256       .  A
C1710      C3326   1.489       .  S
Cr1711     O1714   1.773       .  S
Cr1712     O1714   1.769       .  S
Cr1713     O1714   1.768       .  S
O1715     Cr1733   1.949       .  S
O1715      C1723   1.260       .  A
O1716     Cr1733   1.997       .  S
O1716      C1717   1.259       .  A
C1717      O1718   1.256       .  A
C1717      C3221   1.485       .  S
O1718     Cr1734   1.987       .  S
O1719     Cr1734   2.032       .  S
O1719      C1720   1.271       .  A
C1720      O1721   1.256       .  A
C1720      C3125   1.487       .  S
O1721     Cr1735   1.961   1_655  S
O1722     Cr1735   2.043   1_655  S
O1722      C1723   1.277       .  A
C1723      C3197   1.473       .  S
O1724     Cr1733   2.002   1_455  S
O1724      C1732   1.261       .  A
O1725     Cr1733   1.950   1_455  S
O1725      C1726   1.262       .  A
C1726      O1727   1.278       .  A
C1726      C3149   1.482       .  S
O1727     Cr1734   2.037   1_455  S
O1728     Cr1734   1.949   1_455  S
O1728      C1729   1.254       .  A
C1729      O1730   1.273       .  A
C1729      C3269   1.487       .  S
O1730     Cr1735   2.038       .  S
O1731     Cr1735   1.994       .  S
O1731      C1732   1.259       .  A
C1732      C3182   1.492       .  S
Cr1733     O1736   1.768       .  S
Cr1734     O1736   1.766       .  S
Cr1735     O1736   1.768   1_455  S
O1737     Cr1755   1.950       .  S
O1738     Cr1755   2.002       .  S
O1738      C1739   1.260       .  A
C1739      O1740   1.259       .  A
C1739      C3062   1.491       .  S
O1740     Cr1756   1.994       .  S
O1741     Cr1756   2.033       .  S
O1741      C1742   1.272       .  A
C1742      O1743   1.255       .  A
C1742      C3134   1.491       .  S
O1744     Cr1757   2.039       .  S
O1744      C1745   1.279       .  A
C1745      C3038   1.476       .  S
O1746     Cr1755   1.993       .  S
O1747     Cr1755   1.951       .  S
O1747      C1748   1.261       .  A
C1748      O1749   1.277       .  A
C1748      C3086   1.476       .  S
O1749     Cr1756   2.040       .  S
O1750     Cr1756   1.953       .  S
O1750      C1751   1.254       .  A
C1751      O1752   1.271       .  A
C1751      C3245   1.482       .  S
O1753     Cr1757   1.994   1_554  S
O1753      C1754   1.256   1_554  A
C1754      C3110   1.488       .  S
Cr1755     O1758   1.771       .  S
Cr1756     O1758   1.772       .  S
O1759     Cr1777   1.996       .  S
O1759      C1767   1.258       .  A
O1760     Cr1777   1.950       .  S
O1760      C1761   1.262       .  A
C1761      O1762   1.277       .  A
C1761      C3101   1.478       .  S
O1762     Cr1778   2.036       .  S
O1763     Cr1778   1.956       .  S
O1763      C1764   1.256       .  A
C1764      O1765   1.274       .  A
C1764      C3005   1.491       .  S
O1765     Cr1779   2.041       .  S
O1766     Cr1779   1.991       .  S
O1766      C1767   1.257       .  A
C1767      C3077   1.489       .  S
O1768     Cr1777   1.944       .  S
O1768      C1776   1.260       .  A
O1769     Cr1777   1.997       .  S
O1769      C1770   1.259       .  A
C1770      O1771   1.259       .  A
C1770      C2981   1.489       .  S
O1771     Cr1778   1.995       .  S
O1772     Cr1778   2.028       .  S
O1772      C1773   1.270       .  A
C1773      O1774   1.253       .  A
C1773      C2933   1.480       .  S
O1774     Cr1779   1.950       .  S
O1775     Cr1779   2.047       .  S
O1775      C1776   1.280       .  A
C1776      C2957   1.484       .  S
Cr1777     O1780   1.769       .  S
Cr1778     O1780   1.768       .  S
Cr1779     O1780   1.767       .  S
O1781     Cr1799   1.995       .  S
O1781      C1789   1.260       .  A
O1782     Cr1799   1.950       .  S
C1783      O1784   1.278       .  A
C1783      C2894   1.482       .  S
O1784     Cr1800   2.047       .  S
O1785      C1786   1.254   1_554  A
C1786      O1787   1.271       .  A
C1786      C2870   1.483       .  S
O1787     Cr1801   2.034       .  S
O1788     Cr1801   1.983       .  S
O1788      C1789   1.256       .  A
C1789      C2909   1.480       .  S
O1790     Cr1799   1.945       .  S
O1790      C1798   1.259       .  A
O1791     Cr1799   1.994       .  S
C1792      O1793   1.257       .  A
C1792      C3341   1.483       .  S
O1793     Cr1800   1.981       .  S
O1794      C1795   1.274       .  A
C1795      O1796   1.253       .  A
C1795      C3014   1.494       .  S
O1796     Cr1801   1.950       .  S
O1797     Cr1801   2.043       .  S
O1797      C1798   1.277       .  A
C1798      C3374   1.479       .  S
Cr1799     O1802   1.768       .  S
Cr1801     O1802   1.772       .  S
O1803     Cr1821   1.998       .  S
O1803      C1811   1.260       .  A
O1804     Cr1821   1.937       .  S
O1804      C1805   1.259       .  A
C1805      O1806   1.278       .  A
C1805      C2813   1.480       .  S
O1806     Cr1822   2.045   1_455  S
O1807     Cr1822   1.957   1_455  S
O1807      C1808   1.256       .  A
C1808      O1809   1.272       .  A
C1808      C2861   1.494       .  S
O1809     Cr1823   2.037       .  S
O1810     Cr1823   1.989       .  S
O1810      C1811   1.256       .  A
C1811      C2837   1.484       .  S
O1812     Cr1821   1.944   1_655  S
O1812      C1820   1.261       .  A
O1813     Cr1821   2.000   1_655  S
O1813      C1814   1.260       .  A
C1814      O1815   1.258       .  A
C1814      C2789   1.492       .  S
O1815     Cr1822   1.993       .  S
O1816     Cr1822   2.035       .  S
O1816      C1817   1.272       .  A
C1817      O1818   1.254       .  A
C1817      C2942   1.487       .  S
O1818     Cr1823   1.948   1_655  S
O1819     Cr1823   2.047   1_655  S
O1819      C1820   1.280       .  A
C1820      C2765   1.485       .  S
Cr1821     O1824   1.770       .  S
Cr1822     O1824   1.772   1_655  S
Cr1823     O1824   1.770       .  S
O1825     Cr1843   1.945       .  S
O1825      C1833   1.260       .  A
O1826     Cr1843   1.996       .  S
O1826      C1827   1.260       .  A
C1827      O1828   1.261       .  A
C1827      C2885   1.487       .  S
O1828     Cr1844   1.999       .  S
O1829     Cr1844   2.050       .  S
O1829      C1830   1.276       .  A
C1830      O1831   1.255       .  A
C1830      C2717   1.496       .  S
O1831     Cr1845   1.957       .  S
O1832     Cr1845   2.033       .  S
O1832      C1833   1.276       .  A
C1833      C2918   1.477       .  S
O1834     Cr1843   2.002       .  S
O1834      C1842   1.260       .  A
O1835     Cr1843   1.940       .  S
O1835      C1836   1.258       .  A
C1836      O1837   1.279       .  A
C1836      C2678   1.483       .  S
O1837     Cr1844   2.045       .  S
O1838     Cr1844   1.957       .  S
O1838      C1839   1.255       .  A
C1839      O1840   1.269       .  A
C1839      C2741   1.492       .  S
O1840     Cr1845   2.025       .  S
O1841     Cr1845   1.982       .  S
O1841      C1842   1.255       .  A
C1842      C2702   1.484       .  S
Cr1843     O1846   1.771       .  S
Cr1844     O1846   1.772       .  S
Cr1845     O1846   1.771       .  S
O1847     Cr1865   1.953   1_565  S
O1847      C1855   1.261       .  A
O1848     Cr1865   1.997   1_565  S
O1848      C1849   1.260       .  A
C1849      O1850   1.262       .  A
C1849      C2822   1.495       .  S
O1850     Cr1866   2.001       .  S
O1851     Cr1866   2.052       .  S
O1851      C1852   1.276       .  A
C1852      O1853   1.257       .  A
C1852      C2726   1.501       .  S
O1853     Cr1867   1.958   1_565  S
O1854     Cr1867   2.041   1_565  S
O1854      C1855   1.276       .  A
C1855      C2846   1.488       .  S
O1856     Cr1865   1.997       .  S
O1856      C1864   1.260       .  A
O1857     Cr1865   1.953       .  S
O1857      C1858   1.261       .  A
C1858      O1859   1.278       .  A
C1858      C2621   1.488       .  S
O1859     Cr1866   2.045   1_545  S
O1860     Cr1866   1.968   1_545  S
O1860      C1861   1.256       .  A
C1861      O1862   1.269       .  A
C1861      C2597   1.487       .  S
O1862     Cr1867   2.031       .  S
O1863     Cr1867   1.990       .  S
O1863      C1864   1.259       .  A
C1864      C2645   1.487       .  S
Cr1865     O1868   1.769       .  S
Cr1866     O1868   1.771   1_565  S
Cr1867     O1868   1.774       .  S
O1869     Cr1887   1.997       .  S
O1869      C1877   1.266       .  A
O1870     Cr1887   1.978       .  S
C1871      O1872   1.261   1_554  A
C1871      C2534   1.485   1_554  S
O1872     Cr1888   1.999   1_556  S
O1873      C1874   1.269       .  A
C1874      O1875   1.263       .  A
C1874      C2750   1.494       .  S
O1875     Cr1889   1.988       .  S
O1876     Cr1889   1.996       .  S
O1876      C1877   1.266       .  A
C1877      C2510   1.492       .  S
O1878     Cr1887   1.989       .  S
O1878      C1886   1.260       .  A
O1879      C1880   1.270       .  A
C1880      O1881   1.266       .  A
C1880      C2549   1.483       .  S
O1881     Cr1888   1.992   1_556  S
O1882      C1883   1.265       .  A
C1883      O1884   1.270       .  A
C1883      C2606   1.483       .  S
O1884     Cr1889   2.013       .  S
O1885     Cr1889   1.998       .  S
O1885      C1886   1.262       .  A
C1886      C2582   1.486       .  S
Cr1887     O1890   1.771       .  S
Cr1889     O1890   1.765       .  S
O1891     Cr1909   1.994       .  S
O1891      C1899   1.257       .  A
O1892     Cr1909   1.954       .  S
O1892      C1893   1.264       .  A
C1893      O1894   1.278       .  A
C1893      C3230   1.472       .  S
O1894     Cr1910   2.040   1_545  S
O1895     Cr1910   1.949   1_545  S
O1895      C1896   1.255       .  A
C1896      O1897   1.272       .  A
C1896      C2453   1.487       .  S
O1897     Cr1911   2.033       .  S
O1898     Cr1911   1.996       .  S
O1898      C1899   1.256       .  A
C1899      C3206   1.491       .  S
O1900     Cr1909   1.946   1_565  S
O1900      C1908   1.263       .  A
O1901     Cr1909   1.996   1_565  S
O1901      C1902   1.257       .  A
C1902      O1903   1.257       .  A
C1902      C2429   1.488       .  S
O1903     Cr1910   1.991       .  S
O1904     Cr1910   2.029       .  S
O1904      C1905   1.270       .  A
C1905      O1906   1.254       .  A
C1905      C2486   1.484       .  S
O1906     Cr1911   1.951   1_565  S
O1907     Cr1911   2.046   1_565  S
O1907      C1908   1.281       .  A
C1908      C2405   1.482       .  S
Cr1909     O1912   1.768       .  S
Cr1910     O1912   1.770   1_565  S
Cr1911     O1912   1.770       .  S
O1913     Cr1931   1.995       .  S
O1914     Cr1931   1.940       .  S
O1914      C1915   1.262       .  A
C1915      O1916   1.282       .  A
C1915      C2693   1.482       .  S
O1916     Cr1932   2.050       .  S
O1917     Cr1932   1.953       .  S
O1917      C1918   1.256       .  A
C1918      O1919   1.273       .  A
C1918      C2333   1.498       .  S
O1920     Cr1933   1.998       .  S
O1920      C1921   1.258       .  A
C1921      C2669   1.484       .  S
O1922      C1930   1.262       .  A
O1923     Cr1931   1.990       .  S
O1923      C1924   1.254       .  A
C1924      O1925   1.256       .  A
C1924      C2390   1.487       .  S
O1925     Cr1932   1.994       .  S
O1926     Cr1932   2.032       .  S
O1926      C1927   1.272       .  A
C1927      O1928   1.254   1_556  A
C1927      C2477   1.481       .  S
O1929     Cr1933   2.049       .  S
O1929      C1930   1.280       .  A
C1930      C2357   1.481       .  S
Cr1931     O1934   1.769       .  S
Cr1932     O1934   1.768       .  S
O1935     Cr1953   1.990       .  S
O1935      C1943   1.259       .  A
O1936     Cr1953   1.955       .  S
O1936      C1937   1.260       .  A
C1937      O1938   1.278       .  A
C1937      C3053   1.487       .  S
O1938     Cr1954   2.047       .  S
O1939     Cr1954   1.950       .  S
O1939      C1940   1.253       .  A
C1940      O1941   1.270       .  A
C1940      C2462   1.483       .  S
O1941     Cr1955   2.033       .  S
O1942     Cr1955   1.993       .  S
O1942      C1943   1.259       .  A
C1943      C3029   1.479       .  S
O1944     Cr1953   1.959       .  S
O1944      C1952   1.264       .  A
O1945     Cr1953   2.002       .  S
O1945      C1946   1.262       .  A
C1946      O1947   1.260       .  A
C1946      C2501   1.490       .  S
O1947     Cr1954   1.990       .  S
O1948     Cr1954   2.047       .  S
O1948      C1949   1.276       .  A
C1949      O1950   1.254       .  A
C1949      C2342   1.488       .  S
O1950     Cr1955   1.956       .  S
O1951     Cr1955   2.028       .  S
O1951      C1952   1.275       .  A
C1952      C2525   1.479       .  S
Cr1953     O1956   1.766       .  S
Cr1954     O1956   1.768       .  S
Cr1955     O1956   1.772       .  S
O1957     Cr1975   2.005       .  S
O1957      C1965   1.261       .  A
O1958     Cr1975   1.952       .  S
O1958      C1959   1.260       .  A
C1959      O1960   1.276       .  A
C1959      C2237   1.481       .  S
O1960     Cr1976   2.039       .  S
O1961     Cr1976   1.956       .  S
O1961      C1962   1.255       .  A
C1962      O1963   1.272       .  A
C1962      C2309   1.488       .  S
O1963     Cr1977   2.037       .  S
O1964     Cr1977   1.997       .  S
O1964      C1965   1.259       .  A
C1965      C2270   1.497       .  S
O1966     Cr1975   1.960       .  S
O1966      C1974   1.264       .  A
O1967     Cr1975   2.012       .  S
O1967      C1968   1.263       .  A
C1968      O1969   1.261       .  A
C1968      C2558   1.496       .  S
O1969     Cr1976   1.997       .  S
O1970     Cr1976   2.037       .  S
O1970      C1971   1.272       .  A
C1971      O1972   1.256       .  A
C1971      C2285   1.491       .  S
O1972     Cr1977   1.963       .  S
O1973     Cr1977   2.038       .  S
O1973      C1974   1.279       .  A
C1974      C2573   1.485       .  S
Cr1975     O1978   1.773       .  S
Cr1976     O1978   1.774       .  S
Cr1977     O1978   1.769       .  S
O1979     Cr1997   2.001       .  S
O1979      C1987   1.261       .  A
O1980     Cr1997   1.935       .  S
O1980      C1981   1.260       .  A
C1981      O1982   1.281       .  A
C1981      C2654   1.488       .  S
O1982     Cr1998   2.050       .  S
O1983     Cr1998   1.949       .  S
O1983      C1984   1.253       .  A
C1984      O1985   1.274       .  A
C1984      C2294   1.495       .  S
O1985     Cr1999   2.047       .  S
O1986     Cr1999   1.990       .  S
O1986      C1987   1.256       .  A
C1987      C2630   1.487       .  S
O1988     Cr1997   1.942       .  S
O1988      C1996   1.259       .  A
O1989     Cr1997   1.997       .  S
O1989      C1990   1.259       .  A
C1990      O1991   1.254       .  A
C1990      C3158   1.482       .  S
O1991     Cr1998   1.983       .  S
O1992     Cr1998   2.037       .  S
O1992      C1993   1.273       .  A
C1993      O1994   1.253       .  A
C1993      C2213   1.487       .  S
O1994     Cr1999   1.943       .  S
O1995     Cr1999   2.059       .  S
O1995      C1996   1.282       .  A
C1996      C3173   1.485       .  S
Cr1997     O2000   1.768       .  S
Cr1998     O2000   1.771       .  S
Cr1999     O2000   1.770       .  S
O2001     Cr2019   1.999       .  S
O2002     Cr2019   1.949       .  S
O2002      C2003   1.263       .  A
C2003      O2004   1.281       .  A
C2003      C2174   1.480       .  S
O2004     Cr2020   2.046       .  S
O2005     Cr2020   1.946       .  S
O2005      C2006   1.253       .  A
C2006      O2007   1.272       .  A
C2006      C2318   1.487       .  S
O2008     Cr2021   1.994       .  S
O2008      C2009   1.259       .  A
C2009      C2189   1.491       .  S
O2010      C2018   1.262       .  A
O2011     Cr2019   2.003       .  S
O2011      C2012   1.257       .  A
C2012      O2013   1.253       .  A
C2012      C3293   1.486       .  S
O2013     Cr2020   1.980       .  S
O2014     Cr2020   2.031       .  S
O2014      C2015   1.271       .  A
C2015      O2016   1.254   1_556  A
C2015      C2222   1.489       .  S
O2017     Cr2021   2.044       .  S
O2017      C2018   1.278       .  A
C2018      C3317   1.476       .  S
Cr2019     O2022   1.772       .  S
Cr2020     O2022   1.767       .  S
O2023     Cr2041   1.946       .  S
O2023      C2031   1.260       .  A
O2024     Cr2041   2.001       .  S
O2024      C2025   1.262       .  A
C2025      O2026   1.258       .  A
C2025      C2165   1.489       .  S
O2026     Cr2042   1.989       .  S
O2027     Cr2042   2.031       .  S
O2027      C2028   1.270       .  A
C2028      O2029   1.251       .  A
C2028      C2150   1.481       .  S
O2029     Cr2043   1.939       .  S
O2030     Cr2043   2.057       .  S
O2030      C2031   1.282       .  A
C2031      C2198   1.491       .  S
O2032     Cr2041   2.006       .  S
O2032      C2040   1.262       .  A
O2033     Cr2041   1.948       .  S
O2033      C2034   1.260       .  A
C2034      O2035   1.275       .  A
C2034      C2381   1.468       .  S
O2035     Cr2042   2.036       .  S
O2036     Cr2042   1.957       .  S
O2036      C2037   1.256       .  A
C2037      O2038   1.276       .  A
C2037      C2117   1.497       .  S
O2038     Cr2043   2.053       .  S
O2039     Cr2043   1.981       .  S
O2039      C2040   1.256       .  A
C2040      C2366   1.489       .  S
Cr2041     O2044   1.769       .  S
Cr2042     O2044   1.769       .  S
Cr2043     O2044   1.763       .  S
O2045     Cr2063   1.953       .  S
O2045      C2053   1.258       .  A
O2046     Cr2063   2.001       .  S
C2047      O2048   1.257       .  A
C2047      C2246   1.490       .  S
O2048     Cr2064   1.992       .  S
O2049      C2050   1.270       .  A
C2050      O2051   1.251       .  A
C2050      C2141   1.474       .  S
O2051     Cr2065   1.942       .  S
O2052     Cr2065   2.048       .  S
O2052      C2053   1.277       .  A
C2053      C2261   1.492       .  S
O2054     Cr2063   2.011       .  S
O2054      C2062   1.265       .  A
O2055      C2056   1.262       .  A
C2056      O2057   1.279       .  A
C2056      C2990   1.481       .  S
O2057     Cr2064   2.046       .  S
O2058      C2059   1.257       .  A
C2059      O2060   1.274       .  A
C2059      C2093   1.495       .  S
O2060     Cr2065   2.042       .  S
O2061     Cr2065   1.976       .  S
O2061      C2062   1.256       .  A
C2062      C2966   1.489       .  S
Cr2063     O2066   1.765       .  S
Cr2065     O2066   1.768       .  S
O2067     Cr2085   1.948       .  S
O2067      C2075   1.260       .  A
O2068     Cr2085   2.004       .  S
O2068      C2069   1.262       .  A
C2069      O2070   1.260       .  A
C2069      C2414   1.493       .  S
O2070     Cr2086   1.995       .  S
O2071     Cr2086   2.046       .  S
O2071      C2072   1.274       .  A
C2072      O2073   1.255       .  A
C2072      C2126   1.495       .  S
O2073     Cr2087   1.962       .  S
O2074     Cr2087   2.041       .  S
O2074      C2075   1.277       .  A
C2075      C2438   1.476       .  S
O2076     Cr2085   1.997       .  S
O2076      C2084   1.260       .  A
O2077     Cr2085   1.951       .  S
O2077      C2078   1.260       .  A
C2078      O2079   1.277       .  A
C2078      C2798   1.472       .  S
O2079     Cr2086   2.044       .  S
O2080     Cr2086   1.957       .  S
O2080      C2081   1.255       .  A
C2081      O2082   1.274       .  A
C2081      C2102   1.486       .  S
O2082     Cr2087   2.044       .  S
O2083     Cr2087   1.993       .  S
O2083      C2084   1.259       .  A
C2084      C2774   1.484       .  S
Cr2085     O2088   1.768       .  S
Cr2086     O2088   1.768       .  S
Cr2087     O2088   1.770       .  S
C2089      C2090   1.409       .  A
C2089      H2099   1.083   1_556  S
C2090      C2095   1.493       .  S
C2090      C2091   1.404       .  A
C2091      C2092   1.401       .  A
C2091      O2096   1.372       .  S
C2092      H2097   1.084       .  S
C2093      C2094   1.412       .  A
C2094      O2098   1.371       .  S
C2095      C2100   1.414       .  A
C2095      C2104   1.401       .  A
O2096      H2112   0.992       .  S
O2098      H2109   0.991       .  S
C2100      C2101   1.408       .  A
C2100      O2105   1.371       .  S
C2101      C2102   1.403       .  A
C2101      H2106   1.084       .  S
C2102      C2103   1.413       .  A
C2103      C2104   1.403       .  A
C2103      O2107   1.371       .  S
C2104      H2108   1.084       .  S
O2105      H2110   0.992       .  S
O2107      H2111   0.992       .  S
C2113      C2114   1.410       .  A
C2113      C2118   1.413       .  A
C2113      H2123   1.083       .  S
C2114      C2119   1.499       .  S
C2114      C2115   1.406       .  A
C2115      C2116   1.403       .  A
C2115      O2120   1.372       .  S
C2116      C2117   1.410       .  A
C2116      H2121   1.084       .  S
C2117      C2118   1.411       .  A
C2118      O2122   1.371       .  S
C2119      C2124   1.414       .  A
C2119      C2128   1.403       .  A
O2120      H2136   0.992       .  S
O2122      H2133   0.992       .  S
C2124      C2125   1.409       .  A
C2124      O2129   1.371       .  S
C2125      C2126   1.405       .  A
C2125      H2130   1.083       .  S
C2126      C2127   1.417       .  A
C2127      C2128   1.406       .  A
C2127      O2131   1.372       .  S
C2128      H2132   1.083       .  S
O2129      H2134   0.992       .  S
O2131      H2135   0.992       .  S
C2137      C2138   1.397       .  A
C2137      C2142   1.395       .  A
C2137      H2147   1.084       .  S
C2138      C2143   1.477       .  S
C2138      C2139   1.411       .  A
C2139      C2140   1.404       .  A
C2139      O2144   1.372       .  S
C2140      C2141   1.403       .  A
C2140      H2145   1.084       .  S
C2141      C2142   1.413       .  A
C2142      O2146   1.373       .  S
C2143      C2148   1.401       .  A
C2143      C2152   1.407       .  A
O2144      H2160   0.991       .  S
O2146      H2157   0.992       .  S
C2148      C2149   1.393       .  A
C2148      O2153   1.372       .  S
C2149      C2150   1.410       .  A
C2149      H2154   1.084       .  S
C2150      C2151   1.409       .  A
C2151      C2152   1.405       .  A
C2151      O2155   1.371       .  S
C2152      H2156   1.084       .  S
O2153      H2158   0.991       .  S
O2155      H2159   0.992       .  S
C2161      C2162   1.403       .  A
C2161      C2166   1.405       .  A
C2161      H2171   1.084       .  S
C2162      C2167   1.479       .  S
C2162      C2163   1.404       .  A
C2163      C2164   1.397       .  A
C2163      O2168   1.372       .  S
C2164      C2165   1.407       .  A
C2164      H2169   1.083       .  S
C2165      C2166   1.414       .  A
C2166      O2170   1.372       .  S
C2167      C2172   1.410       .  A
C2167      C2176   1.398       .  A
O2168      H2184   0.991       .  S
O2170      H2181   0.992       .  S
C2172      C2173   1.406       .  A
C2172      O2177   1.371       .  S
C2173      C2174   1.405       .  A
C2173      H2178   1.083       .  S
C2174      C2175   1.414       .  A
C2175      C2176   1.395       .  A
C2175      O2179   1.373       .  S
C2176      H2180   1.084       .  S
O2177      H2182   0.992       .  S
O2179      H2183   0.991       .  S
C2185      C2186   1.408       .  A
C2185      C2190   1.406       .  A
C2185      H2195   1.083       .  S
C2186      C2191   1.494       .  S
C2186      C2187   1.408       .  A
C2187      C2188   1.401       .  A
C2187      O2192   1.372       .  S
C2188      C2189   1.408       .  A
C2188      H2193   1.083       .  S
C2189      C2190   1.412       .  A
C2190      O2194   1.371       .  S
C2191      C2196   1.407       .  A
C2191      C2200   1.411       .  A
O2192      H2208   0.992       .  S
C2196      C2197   1.397       .  A
C2196      O2201   1.372       .  S
C2197      C2198   1.409       .  A
C2197      H2202   1.084       .  S
C2198      C2199   1.409       .  A
C2199      C2200   1.411       .  A
C2199      O2203   1.370       .  S
C2200      H2204   1.083       .  S
O2201      H2206   0.992       .  S
O2203      H2207   0.991       .  S
C2209      C2210   1.412       .  A
C2209      C2214   1.407       .  A
C2209      H2219   1.083       .  S
C2210      C2215   1.494       .  S
C2210      C2211   1.406       .  A
C2211      C2212   1.397       .  A
C2211      O2216   1.372       .  S
C2212      C2213   1.410       .  A
C2212      H2217   1.084       .  S
C2213      C2214   1.407       .  A
C2214      O2218   1.371       .  S
C2215      C2220   1.407       .  A
C2215      C2224   1.411       .  A
O2216      H2232   0.992       .  S
O2218      H2229   0.991       .  S
C2220      C2221   1.398       .  A
C2220      O2225   1.372       .  S
C2221      H2226   1.084       .  S
C2222      C2223   1.407       .  A
C2223      O2227   1.371       .  S
C2224      H2228   1.083       .  S
O2225      H2230   0.992       .  S
O2227      H2231   0.992       .  S
C2233      C2234   1.407       .  A
C2233      C2238   1.408       .  A
C2233      H2243   1.083       .  S
C2234      C2239   1.480       .  S
C2234      C2235   1.404       .  A
C2235      C2236   1.395       .  A
C2235      O2240   1.372       .  S
C2236      C2237   1.407       .  A
C2236      H2241   1.084       .  S
C2237      C2238   1.408       .  A
C2238      O2242   1.370       .  S
C2239      C2244   1.407       .  A
C2239      C2248   1.399       .  A
O2240      H2256   0.992       .  S
O2242      H2253   0.992       .  S
C2244      C2245   1.404       .  A
C2244      O2249   1.371       .  S
C2245      C2246   1.409       .  A
C2245      H2250   1.083       .  S
C2246      C2247   1.416       .  A
C2247      C2248   1.398       .  A
C2248      H2252   1.084       .  S
O2249      H2254   0.991       .  S
O2251      H2255   0.992       .  S
C2257      C2258   1.409       .  A
C2257      C2262   1.413       .  A
C2257      H2267   1.083       .  S
C2258      C2263   1.490       .  S
C2258      C2259   1.405       .  A
C2259      C2260   1.396       .  A
C2259      O2264   1.372       .  S
C2260      C2261   1.409       .  A
C2260      H2265   1.084       .  S
C2261      C2262   1.411       .  A
C2262      O2266   1.371       .  S
C2263      C2268   1.406       .  A
C2263      C2272   1.405       .  A
O2264      H2280   0.992       .  S
O2266      H2277   0.992       .  S
C2268      C2269   1.403       .  A
C2268      O2273   1.371       .  S
C2269      C2270   1.410       .  A
C2269      H2274   1.083       .  S
C2270      C2271   1.414       .  A
C2271      C2272   1.406       .  A
C2271      O2275   1.371       .  S
C2272      H2276   1.084       .  S
O2273      H2278   0.992       .  S
O2275      H2279   0.992       .  S
C2281      C2282   1.401       .  A
C2281      C2286   1.403       .  A
C2281      H2291   1.083       .  S
C2282      C2287   1.496       .  S
C2282      C2283   1.414       .  A
C2283      C2284   1.409       .  A
C2283      O2288   1.372       .  S
C2284      C2285   1.406       .  A
C2284      H2289   1.083       .  S
C2285      C2286   1.413       .  A
C2286      O2290   1.372       .  S
C2287      C2292   1.414       .  A
C2287      C2296   1.400       .  A
O2288      H2304   0.992       .  S
O2290      H2301   0.992       .  S
C2292      C2293   1.410       .  A
C2292      O2297   1.371       .  S
C2293      C2294   1.405       .  A
C2293      H2298   1.083       .  S
C2294      C2295   1.418       .  A
C2295      C2296   1.402       .  A
C2295      O2299   1.373       .  S
C2296      H2300   1.084       .  S
O2297      H2302   0.992       .  S
O2299      H2303   0.992       .  S
C2305      C2306   1.400       .  A
C2305      C2310   1.400       .  A
C2305      H2315   1.083       .  S
C2306      C2311   1.492       .  S
C2306      C2307   1.414       .  A
C2307      C2308   1.408       .  A
C2307      O2312   1.372       .  S
C2308      C2309   1.404       .  A
C2308      H2313   1.083       .  S
C2309      C2310   1.415       .  A
C2310      O2314   1.372       .  S
C2311      C2316   1.414       .  A
C2311      C2320   1.400       .  A
O2312      H2328   0.992       .  S
O2314      H2325   0.992       .  S
C2316      C2317   1.409       .  A
C2316      O2321   1.371       .  S
C2317      C2318   1.404       .  A
C2317      H2322   1.083       .  S
C2318      C2319   1.416       .  A
C2319      C2320   1.399       .  A
C2319      O2323   1.372       .  S
C2320      H2324   1.084       .  S
O2321      H2326   0.992       .  S
O2323      H2327   0.992       .  S
C2329      C2330   1.412       .  A
C2329      C2334   1.412       .  A
C2329      H2339   1.083   1_565  S
C2330      C2335   1.501   1_565  S
C2330      C2331   1.408       .  A
C2331      C2332   1.398       .  A
C2331      O2336   1.372       .  S
C2332      C2333   1.410       .  A
C2332      H2337   1.084       .  S
C2333      C2334   1.411       .  A
C2334      O2338   1.371       .  S
C2335      C2340   1.409       .  A
C2335      C2344   1.411       .  A
O2336      H2352   0.992       .  S
O2338      H2349   0.992       .  S
C2340      C2341   1.406       .  A
C2340      O2345   1.372       .  S
C2341      C2342   1.409       .  A
C2341      H2346   1.084       .  S
C2342      C2343   1.407       .  A
C2343      C2344   1.406       .  A
C2343      O2347   1.371       .  S
C2344      H2348   1.083       .  S
O2345      H2350   0.992       .  S
O2347      H2351   0.992       .  S
C2353      C2354   1.399       .  A
C2353      C2358   1.392       .  A
C2353      H2363   1.084       .  S
C2354      C2359   1.483       .  S
C2354      C2355   1.411       .  A
C2355      C2356   1.410       .  A
C2355      O2360   1.372       .  S
C2356      C2357   1.406       .  A
C2356      H2361   1.083       .  S
C2357      C2358   1.412       .  A
C2358      O2362   1.373       .  S
C2359      C2364   1.407       .  A
C2359      C2368   1.403       .  A
O2360      H2376   0.992       .  S
C2364      C2365   1.402       .  A
C2364      O2369   1.372       .  S
C2365      C2366   1.408       .  A
C2365      H2370   1.083       .  S
C2366      C2367   1.413       .  A
C2367      C2368   1.400       .  A
C2367      O2371   1.371       .  S
C2368      H2372   1.084       .  S
O2369      H2374   0.992       .  S
O2371      H2375   0.992       .  S
C2377      C2378   1.402       .  A
C2377      C2382   1.394       .  A
C2377      H2387   1.083       .  S
C2378      C2383   1.485       .  S
C2378      C2379   1.414       .  A
C2379      C2380   1.404       .  A
C2379      O2384   1.371       .  S
C2380      C2381   1.401       .  A
C2380      H2385   1.083       .  S
C2381      C2382   1.408       .  A
C2382      O2386   1.373       .  S
C2383      C2388   1.410       .  A
C2383      C2392   1.401       .  A
O2384      H2400   0.992       .  S
O2386      H2397   0.992       .  S
C2388      C2389   1.403       .  A
C2388      O2393   1.373       .  S
C2389      C2390   1.406       .  A
C2389      H2394   1.083       .  S
C2390      C2391   1.416       .  A
C2391      C2392   1.398       .  A
C2391      O2395   1.372       .  S
C2392      H2396   1.084       .  S
O2393      H2398   0.992       .  S
O2395      H2399   0.992       .  S
C2401      C2402   1.397       .  A
C2401      C2406   1.393       .  A
C2401      H2411   1.084       .  S
C2403      O2408   1.371       .  S
C2404      C2405   1.406       .  A
C2405      C2406   1.415       .  A
C2406      O2410   1.373       .  S
C2407      C2412   1.406       .  A
C2407      C2416   1.403       .  A
O2408      H2424   0.992       .  S
O2410      H2421   0.992       .  S
C2412      C2413   1.400       .  A
C2413      C2414   1.410       .  A
C2413      H2418   1.083       .  S
C2414      C2415   1.413       .  A
C2415      C2416   1.405       .  A
C2415      O2419   1.371       .  S
C2416      H2420   1.083       .  S
O2417      H2422   0.992       .  S
O2419      H2423   0.992       .  S
C2425      C2426   1.399       .  A
C2425      C2430   1.399       .  A
C2425      H2435   1.084       .  S
C2426      C2431   1.479       .  S
C2426      C2427   1.407       .  A
C2427      C2428   1.402       .  A
C2427      O2432   1.371       .  S
C2428      C2429   1.407       .  A
C2428      H2433   1.083       .  S
C2429      C2430   1.417       .  A
C2430      O2434   1.372       .  S
C2431      C2436   1.410       .  A
C2431      C2440   1.398       .  A
O2432      H2448   0.992       .  S
O2434      H2445   0.992       .  S
C2436      C2437   1.407       .  A
C2436      O2441   1.371       .  S
C2437      C2438   1.404       .  A
C2437      H2442   1.083       .  S
C2438      C2439   1.411       .  A
C2439      C2440   1.395       .  A
C2439      O2443   1.373       .  S
C2440      H2444   1.084       .  S
O2441      H2446   0.992       .  S
O2443      H2447   0.992       .  S
C2449      C2450   1.409       .  A
C2449      C2454   1.407       .  A
C2449      H2459   1.083       .  S
C2450      C2455   1.488       .  S
C2450      C2451   1.405       .  A
C2451      C2452   1.397       .  A
C2451      O2456   1.372       .  S
C2452      C2453   1.410       .  A
C2452      H2457   1.084       .  S
C2453      C2454   1.408       .  A
C2454      O2458   1.371       .  S
C2455      C2460   1.405       .  A
C2455      C2464   1.409       .  A
O2456      H2472   0.992       .  S
O2458      H2469   0.992       .  S
C2460      C2461   1.399       .  A
C2460      O2465   1.372       .  S
C2461      C2462   1.408       .  A
C2461      H2466   1.084       .  S
C2462      C2463   1.408       .  A
C2463      C2464   1.406       .  A
C2463      O2467   1.371       .  S
C2464      H2468   1.083       .  S
O2465      H2470   0.992       .  S
O2467      H2471   0.992       .  S
C2473      C2474   1.408       .  A
C2474      C2479   1.488       .  S
C2474      C2475   1.405       .  A
C2475      C2476   1.400       .  A
C2475      O2480   1.371       .  S
C2476      H2481   1.084       .  S
C2477      C2478   1.406       .  A
C2478      O2482   1.371       .  S
C2479      C2484   1.404       .  A
C2479      C2488   1.409       .  A
O2480      H2496   0.992       .  S
O2482      H2493   0.992       .  S
C2484      C2485   1.399       .  A
C2485      C2486   1.408       .  A
C2485      H2490   1.084       .  S
C2486      C2487   1.408       .  A
C2487      C2488   1.408       .  A
C2487      O2491   1.371       .  S
C2488      H2492   1.083       .  S
O2489      H2494   0.991   1_554  S
O2491      H2495   0.992       .  S
C2497      C2498   1.405       .  A
C2497      C2502   1.404       .  A
C2497      H2507   1.083       .  S
C2498      C2503   1.491       .  S
C2498      C2499   1.409       .  A
C2499      C2500   1.402       .  A
C2499      O2504   1.373       .  S
C2500      C2501   1.407       .  A
C2500      H2505   1.084       .  S
C2501      C2502   1.412       .  A
C2502      O2506   1.371       .  S
C2503      C2508   1.408       .  A
C2503      C2512   1.406       .  A
O2504      H2520   0.992       .  S
O2506      H2517   0.992       .  S
C2508      C2509   1.398       .  A
C2508      O2513   1.372       .  S
C2509      C2510   1.408       .  A
C2509      H2514   1.083       .  S
C2510      C2511   1.414       .  A
C2511      C2512   1.406       .  A
C2511      O2515   1.371       .  S
C2512      H2516   1.083       .  S
O2513      H2518   0.992       .  S
O2515      H2519   0.992       .  S
C2521      C2522   1.401       .  A
C2521      C2526   1.404       .  A
C2521      H2531   1.083       .  S
C2522      C2527   1.473       .  S
C2522      C2523   1.405       .  A
C2523      C2524   1.395       .  A
C2523      O2528   1.372       .  S
C2524      C2525   1.404       .  A
C2524      H2529   1.084       .  S
C2525      C2526   1.413       .  A
C2526      O2530   1.371       .  S
C2527      C2532   1.405       .  A
C2527      C2536   1.400       .  A
O2528      H2544   0.992       .  S
O2530      H2541   0.991       .  S
C2532      C2533   1.396       .  A
C2532      O2537   1.372       .  S
C2533      C2534   1.407       .  A
C2533      H2538   1.083       .  S
C2534      C2535   1.415   1_556  A
C2535      C2536   1.403   1_554  A
C2535      O2539   1.372       .  S
C2536      H2540   1.084   1_556  S
O2537      H2542   0.991       .  S
O2539      H2543   0.992       .  S
C2545      C2546   1.410       .  A
C2545      C2550   1.407       .  A
C2545      H2555   1.083       .  S
C2546      C2551   1.503       .  S
C2546      C2547   1.414       .  A
C2547      C2548   1.403       .  A
C2547      O2552   1.371       .  S
C2548      C2549   1.403       .  A
C2549      C2550   1.407       .  A
C2550      O2554   1.372       .  S
C2551      C2556   1.412       .  A
C2551      C2560   1.409       .  A
O2552      H2568   0.992       .  S
O2554      H2565   0.991       .  S
C2556      C2557   1.405       .  A
C2556      O2561   1.372       .  S
C2557      C2558   1.408       .  A
C2557      H2562   1.083       .  S
C2558      C2559   1.412       .  A
C2559      C2560   1.407       .  A
C2559      O2563   1.371       .  S
C2560      H2564   1.083       .  S
O2561      H2566   0.992       .  S
O2563      H2567   0.992       .  S
C2569      C2570   1.402       .  A
C2569      C2574   1.400       .  A
C2569      H2579   1.084       .  S
C2570      C2575   1.483       .  S
C2570      C2571   1.408       .  A
C2571      C2572   1.405       .  A
C2571      O2576   1.371       .  S
C2572      C2573   1.406       .  A
C2572      H2577   1.082       .  S
C2573      C2574   1.412       .  A
C2574      O2578   1.372       .  S
C2575      C2580   1.408       .  A
C2575      C2584   1.402       .  A
O2576      H2592   0.992       .  S
O2578      H2589   0.992       .  S
C2580      C2581   1.404       .  A
C2580      O2585   1.372       .  S
C2581      C2582   1.406       .  A
C2581      H2586   1.083       .  S
C2582      C2583   1.413       .  A
C2583      C2584   1.401       .  A
C2583      O2587   1.372       .  S
C2584      H2588   1.084       .  S
O2585      H2590   0.992       .  S
O2587      H2591   0.992       .  S
C2593      C2594   1.401       .  A
C2593      C2598   1.405       .  A
C2593      H2603   1.083       .  S
C2594      C2599   1.494       .  S
C2594      C2595   1.414       .  A
C2595      C2596   1.406       .  A
C2595      O2600   1.371       .  S
C2596      C2597   1.403       .  A
C2596      H2601   1.084       .  S
C2597      C2598   1.412       .  A
C2598      O2602   1.373       .  S
C2599      C2608   1.401       .  A
O2600      H2616   0.991       .  S
O2602      H2613   0.991       .  S
C2604      C2605   1.410       .  A
C2604      O2609   1.371       .  S
C2605      C2606   1.406       .  A
C2605      H2610   1.083       .  S
C2607      C2608   1.397       .  A
C2607      O2611   1.373   1_556  S
C2608      H2612   1.084       .  S
O2609      H2614   0.992       .  S
O2611      H2615   0.992   1_554  S
C2617      H2627   1.083       .  S
C2618      C2619   1.405   1_554  A
C2619      C2620   1.397       .  A
C2619      O2624   1.372       .  S
C2620      C2621   1.408       .  A
C2620      H2625   1.084       .  S
C2621      C2622   1.411       .  A
C2623      C2628   1.406       .  A
C2623      C2632   1.403       .  A
O2624      H2640   0.992   1_556  S
C2628      C2629   1.398       .  A
C2628      O2633   1.372       .  S
C2629      C2630   1.407       .  A
C2629      H2634   1.084       .  S
C2630      C2631   1.413       .  A
C2631      C2632   1.405       .  A
C2631      O2635   1.371       .  S
O2633      H2638   0.991       .  S
O2635      H2639   0.991       .  S
C2641      C2642   1.399       .  A
C2641      C2646   1.399       .  A
C2641      H2651   1.084       .  S
C2642      C2647   1.474       .  S
C2642      C2643   1.406       .  A
C2643      C2644   1.402       .  A
C2643      O2648   1.372       .  S
C2644      C2645   1.407       .  A
C2644      H2649   1.083       .  S
C2645      C2646   1.416       .  A
C2646      O2650   1.372       .  S
C2647      C2652   1.400       .  A
C2647      C2656   1.405       .  A
O2648      H2664   0.992       .  S
O2650      H2661   0.992       .  S
C2652      C2653   1.389       .  A
C2652      O2657   1.373       .  S
C2653      C2654   1.410       .  A
C2653      H2658   1.083       .  S
C2654      C2655   1.413       .  A
C2655      C2656   1.409       .  A
C2655      O2659   1.371       .  S
C2656      H2660   1.083       .  S
O2657      H2662   0.992       .  S
O2659      H2663   0.992       .  S
C2665      C2666   1.399       .  A
C2665      C2670   1.399       .  A
C2665      H2675   1.084       .  S
C2666      C2671   1.479       .  S
C2666      C2667   1.409       .  A
C2667      C2668   1.401       .  A
C2667      O2672   1.371       .  S
C2668      C2669   1.404       .  A
C2668      H2673   1.083       .  S
C2669      C2670   1.416       .  A
C2671      C2676   1.410       .  A
C2671      C2680   1.397       .  A
O2672      H2688   0.991       .  S
O2674      H2685   0.992       .  S
C2676      C2677   1.408       .  A
C2676      O2681   1.371       .  S
C2677      C2678   1.406       .  A
C2677      H2682   1.083       .  S
C2678      C2679   1.416       .  A
C2679      C2680   1.392       .  A
C2679      O2683   1.373       .  S
C2680      H2684   1.084       .  S
O2681      H2686   0.992       .  S
O2683      H2687   0.992       .  S
C2689      C2690   1.398       .  A
C2689      C2694   1.390       .  A
C2689      H2699   1.084       .  S
C2690      C2695   1.483       .  S
C2690      C2691   1.411       .  A
C2691      C2692   1.410       .  A
C2691      O2696   1.372       .  S
C2692      C2693   1.406       .  A
C2692      H2697   1.083       .  S
C2693      C2694   1.414       .  A
C2694      O2698   1.373       .  S
C2695      C2700   1.408       .  A
C2695      C2704   1.404       .  A
O2696      H2712   0.992       .  S
O2698      H2709   0.992       .  S
C2700      C2701   1.401       .  A
C2700      O2705   1.372       .  S
C2701      C2702   1.408       .  A
C2701      H2706   1.083       .  S
C2702      C2703   1.411       .  A
C2703      C2704   1.399       .  A
C2703      O2707   1.372       .  S
C2704      H2708   1.084       .  S
O2705      H2710   0.992       .  S
O2707      H2711   0.992       .  S
C2713      C2714   1.403       .  A
C2713      C2718   1.405       .  A
C2713      H2723   1.084       .  S
C2714      C2719   1.502       .  S
C2714      C2715   1.416       .  A
C2715      C2716   1.412       .  A
C2715      O2720   1.372       .  S
C2716      C2717   1.404       .  A
C2716      H2721   1.083       .  S
C2717      C2718   1.417       .  A
C2718      O2722   1.372       .  S
C2719      C2724   1.407       .  A
C2719      C2728   1.412       .  A
O2720      H2736   0.992       .  S
O2722      H2733   0.992       .  S
C2724      C2725   1.404       .  A
C2724      O2729   1.373       .  S
C2725      C2726   1.410       .  A
C2725      H2730   1.083       .  S
C2726      C2727   1.412       .  A
C2727      C2728   1.414       .  A
C2727      O2731   1.371       .  S
C2728      H2732   1.083       .  S
O2729      H2734   0.992       .  S
O2731      H2735   0.992       .  S
C2737      C2738   1.410       .  A
C2737      C2742   1.406       .  A
C2737      H2747   1.083       .  S
C2738      C2743   1.494   1_565  S
C2738      C2739   1.407       .  A
C2739      C2740   1.398       .  A
C2739      O2744   1.372       .  S
C2740      C2741   1.410       .  A
C2740      H2745   1.084       .  S
C2741      C2742   1.410       .  A
C2742      O2746   1.371       .  S
C2743      C2748   1.406       .  A
C2743      C2752   1.411       .  A
O2744      H2760   0.992       .  S
O2746      H2757   0.991       .  S
C2748      C2749   1.396       .  A
C2748      O2753   1.373       .  S
C2749      C2750   1.410       .  A
C2749      H2754   1.083       .  S
C2750      C2751   1.410       .  A
C2751      C2752   1.410       .  A
C2751      O2755   1.371       .  S
C2752      H2756   1.083       .  S
O2753      H2758   0.992       .  S
O2755      H2759   0.992       .  S
C2761      C2762   1.405       .  A
C2761      C2766   1.409       .  A
C2761      H2771   1.083       .  S
C2762      C2767   1.478       .  S
C2762      C2763   1.402       .  A
C2763      C2764   1.393       .  A
C2763      O2768   1.372       .  S
C2764      C2765   1.408       .  A
C2764      H2769   1.084       .  S
C2765      C2766   1.412       .  A
C2766      O2770   1.371       .  S
C2767      C2772   1.408       .  A
C2767      C2776   1.400       .  A
O2768      H2784   0.992       .  S
O2770      H2781   0.991       .  S
C2772      C2773   1.404       .  A
C2772      O2777   1.371       .  S
C2773      C2774   1.405       .  A
C2773      H2778   1.083       .  S
C2774      C2775   1.413       .  A
C2775      C2776   1.399       .  A
C2775      O2779   1.372       .  S
C2776      H2780   1.084       .  S
O2777      H2782   0.991       .  S
O2779      H2783   0.992       .  S
C2785      C2786   1.405       .  A
C2785      C2790   1.403       .  A
C2786      C2787   1.407       .  A
C2787      C2788   1.401       .  A
C2787      O2792   1.372       .  S
C2788      C2789   1.410       .  A
C2788      H2793   1.083       .  S
C2789      C2790   1.413       .  A
C2790      O2794   1.371       .  S
C2791      C2796   1.405   1_554  A
O2792      H2808   0.992       .  S
O2794      H2805   0.992       .  S
C2796      C2797   1.396       .  A
C2796      O2801   1.372       .  S
C2797      C2798   1.403       .  A
C2797      H2802   1.084       .  S
C2798      C2799   1.406   1_556  A
C2800      H2804   1.083       .  S
O2801      H2806   0.992       .  S
C2809      C2810   1.408       .  A
C2809      C2814   1.408       .  A
C2809      H2819   1.083       .  S
C2811      O2816   1.372       .  S
C2812      C2813   1.407       .  A
C2812      H2817   1.084       .  S
C2813      C2814   1.408       .  A
C2814      O2818   1.371       .  S
C2815      C2820   1.411       .  A
C2815      C2824   1.401       .  A
O2816      H2832   0.992       .  S
O2818      H2829   0.992       .  S
C2820      C2821   1.407       .  A
C2821      C2822   1.407       .  A
C2821      H2826   1.083       .  S
C2822      C2823   1.417       .  A
C2823      C2824   1.401       .  A
C2823      O2827   1.372       .  S
C2824      H2828   1.084       .  S
O2825      H2830   0.991       .  S
O2827      H2831   0.992       .  S
C2833      C2834   1.404       .  A
C2833      C2838   1.404       .  A
C2833      H2843   1.084       .  S
C2834      C2839   1.479       .  S
C2834      C2835   1.404       .  A
C2835      C2836   1.400       .  A
C2835      O2840   1.372       .  S
C2836      C2837   1.407       .  A
C2836      H2841   1.084       .  S
C2837      C2838   1.411       .  A
C2838      O2842   1.371       .  S
C2839      C2844   1.402       .  A
C2839      C2848   1.405       .  A
O2840      H2856   0.992       .  S
O2842      H2853   0.992       .  S
C2844      C2845   1.393       .  A
C2844      O2849   1.372       .  S
C2845      C2846   1.407       .  A
C2845      H2850   1.084       .  S
C2846      C2847   1.414       .  A
C2847      C2848   1.410       .  A
C2847      O2851   1.371       .  S
C2848      H2852   1.083       .  S
O2849      H2854   0.992       .  S
O2851      H2855   0.992       .  S
C2857      C2858   1.410       .  A
C2857      C2862   1.410       .  A
C2857      H2867   1.083       .  S
C2858      C2863   1.496       .  S
C2858      C2859   1.407       .  A
C2859      C2860   1.400       .  A
C2859      O2864   1.372       .  S
C2860      C2861   1.410       .  A
C2860      H2865   1.084       .  S
C2861      C2862   1.410       .  A
C2862      O2866   1.371       .  S
C2863      C2868   1.407       .  A
C2863      C2872   1.410       .  A
O2866      H2877   0.992       .  S
C2868      O2873   1.373       .  S
C2869      C2870   1.408   1_554  A
C2869      H2874   1.084       .  S
C2871      C2872   1.407       .  A
C2871      O2875   1.371       .  S
C2872      H2876   1.083       .  S
C2881      C2882   1.405       .  A
C2881      C2886   1.406       .  A
C2881      H2891   1.084       .  S
C2882      C2887   1.485       .  S
C2882      C2883   1.406       .  A
C2883      C2884   1.401       .  A
C2883      O2888   1.372       .  S
C2884      C2885   1.408       .  A
C2884      H2889   1.084       .  S
C2885      C2886   1.410       .  A
C2886      O2890   1.371       .  S
C2887      C2892   1.410       .  A
C2887      C2896   1.400       .  A
O2888      H2904   0.992       .  S
O2890      H2901   0.992       .  S
C2892      C2893   1.407       .  A
C2892      O2897   1.371       .  S
C2893      C2894   1.405       .  A
C2893      H2898   1.083       .  S
C2894      C2895   1.412       .  A
C2895      C2896   1.399       .  A
C2896      H2900   1.084       .  S
O2897      H2902   0.992       .  S
O2899      H2903   0.992       .  S
C2905      C2906   1.399       .  A
C2905      C2910   1.396       .  A
C2905      H2915   1.084       .  S
C2906      C2911   1.472       .  S
C2906      C2907   1.406       .  A
C2907      C2908   1.402       .  A
C2907      O2912   1.371       .  S
C2908      C2909   1.407       .  A
C2908      H2913   1.083       .  S
C2909      C2910   1.412       .  A
C2910      O2914   1.372       .  S
C2911      C2916   1.406       .  A
C2911      C2920   1.398       .  A
O2912      H2928   0.991       .  S
O2914      H2925   0.992       .  S
C2916      C2917   1.404       .  A
C2916      O2921   1.371       .  S
C2917      C2918   1.407       .  A
C2917      H2922   1.083       .  S
C2918      C2919   1.412       .  A
C2919      C2920   1.391       .  A
C2919      O2923   1.373       .  S
C2920      H2924   1.084       .  S
O2921      H2926   0.992       .  S
O2923      H2927   0.992       .  S
C2929      C2930   1.408       .  A
C2929      C2934   1.404       .  A
C2929      H2939   1.083       .  S
C2930      C2935   1.488       .  S
C2930      C2931   1.406       .  A
C2931      C2932   1.399       .  A
C2931      O2936   1.371       .  S
C2932      C2933   1.408       .  A
C2932      H2937   1.084       .  S
C2933      C2934   1.407       .  A
C2934      O2938   1.371       .  S
C2935      C2940   1.404       .  A
C2935      C2944   1.409       .  A
O2936      H2952   0.992       .  S
O2938      H2949   0.991       .  S
C2940      C2941   1.397       .  A
C2940      O2945   1.373       .  S
C2941      C2942   1.409       .  A
C2941      H2946   1.084       .  S
C2942      C2943   1.409       .  A
C2943      C2944   1.408       .  A
C2943      O2947   1.371       .  S
C2944      H2948   1.083       .  S
O2945      H2950   0.992       .  S
O2947      H2951   0.992       .  S
C2953      C2954   1.398       .  A
C2953      C2958   1.394       .  A
C2953      H2963   1.084       .  S
C2954      C2959   1.483       .  S
C2954      C2955   1.410       .  A
C2955      C2956   1.409       .  A
C2955      O2960   1.372       .  S
C2956      C2957   1.405       .  A
C2956      H2961   1.083       .  S
C2957      C2958   1.416       .  A
C2958      O2962   1.373       .  S
C2959      C2964   1.407       .  A
C2959      C2968   1.403       .  A
O2960      H2976   0.991       .  S
O2962      H2973   0.992       .  S
C2964      C2965   1.400       .  A
C2964      O2969   1.372       .  S
C2965      C2966   1.407       .  A
C2965      H2970   1.083       .  S
C2966      C2967   1.415       .  A
C2967      C2968   1.403       .  A
C2967      O2971   1.372       .  S
C2968      H2972   1.084       .  S
O2969      H2974   0.992       .  S
O2971      H2975   0.992       .  S
C2977      C2978   1.402       .  A
C2977      C2982   1.400       .  A
C2977      H2987   1.083       .  S
C2978      C2983   1.487       .  S
C2978      C2979   1.411       .  A
C2979      C2980   1.402       .  A
C2979      O2984   1.371       .  S
C2980      C2981   1.405       .  A
C2980      H2985   1.083       .  S
C2981      C2982   1.415       .  A
C2982      O2986   1.371       .  S
C2983      C2988   1.412       .  A
C2983      C2992   1.401       .  A
O2984      H3000   0.991       .  S
O2986      H2997   0.992       .  S
C2988      C2989   1.410       .  A
C2988      O2993   1.372       .  S
C2989      C2990   1.405       .  A
C2989      H2994   1.083       .  S
C2990      C2991   1.412       .  A
C2991      C2992   1.394       .  A
C2992      H2996   1.084       .  S
O2993      H2998   0.992       .  S
O2995      H2999   0.992       .  S
C3001      C3002   1.402       .  A
C3001      C3006   1.401       .  A
C3001      H3011   1.083       .  S
C3002      C3007   1.497   1_655  S
C3002      C3003   1.416       .  A
C3003      C3004   1.409       .  A
C3003      O3008   1.371   1_655  S
C3004      C3005   1.404       .  A
C3004      H3009   1.083       .  S
C3005      C3006   1.415       .  A
C3006      O3010   1.372       .  S
C3007      C3012   1.416       .  A
C3007      C3016   1.401       .  A
O3008      H3024   0.992       .  S
O3010      H3021   0.991       .  S
C3012      C3013   1.409       .  A
C3012      O3017   1.371   1_455  S
C3013      C3014   1.404       .  A
C3013      H3018   1.083       .  S
C3014      C3015   1.418       .  A
C3015      C3016   1.401       .  A
C3015      O3019   1.372       .  S
C3016      H3020   1.084       .  S
O3017      H3022   0.991       .  S
O3019      H3023   0.992       .  S
C3025      C3026   1.399       .  A
C3025      C3030   1.394       .  A
C3025      H3035   1.084       .  S
C3026      C3031   1.478       .  S
C3026      C3027   1.409       .  A
C3027      C3028   1.406       .  A
C3027      O3032   1.371       .  S
C3028      C3029   1.405       .  A
C3028      H3033   1.083       .  S
C3029      C3030   1.411       .  A
C3030      O3034   1.372       .  S
C3031      C3036   1.408       .  A
C3031      C3040   1.400       .  A
O3032      H3048   0.991       .  S
O3034      H3045   0.992       .  S
C3036      C3037   1.407       .  A
C3036      O3041   1.372       .  S
C3037      C3038   1.406       .  A
C3037      H3042   1.083       .  S
C3038      C3039   1.410       .  A
C3039      C3040   1.392       .  A
C3039      O3043   1.372       .  S
C3040      H3044   1.084       .  S
O3041      H3046   0.992       .  S
C3049      C3050   1.409       .  A
C3049      C3054   1.411       .  A
C3049      H3059   1.083       .  S
C3050      C3055   1.490       .  S
C3050      C3051   1.407       .  A
C3051      C3052   1.397       .  A
C3051      O3056   1.373       .  S
C3052      C3053   1.407       .  A
C3052      H3057   1.084       .  S
C3053      C3054   1.410       .  A
C3054      O3058   1.371       .  S
C3055      C3060   1.410       .  A
C3055      C3064   1.402       .  A
O3056      H3072   0.992       .  S
O3058      H3069   0.991       .  S
C3060      C3061   1.404       .  A
C3060      O3065   1.371       .  S
C3061      C3062   1.406       .  A
C3061      H3066   1.083       .  S
C3062      C3063   1.416       .  A
C3063      C3064   1.402       .  A
C3063      O3067   1.372       .  S
C3064      H3068   1.084       .  S
O3065      H3070   0.992       .  S
O3067      H3071   0.992       .  S
C3073      C3074   1.400       .  A
C3073      C3078   1.398       .  A
C3073      H3083   1.084       .  S
C3074      C3079   1.482       .  S
C3074      C3075   1.408       .  A
C3075      C3076   1.403       .  A
C3075      O3080   1.371       .  S
C3076      C3077   1.408       .  A
C3076      H3081   1.083       .  S
C3077      C3078   1.415       .  A
C3078      O3082   1.372       .  S
C3079      C3084   1.411       .  A
C3079      C3088   1.400       .  A
O3080      H3096   0.992       .  S
O3082      H3093   0.992       .  S
C3084      C3085   1.406       .  A
C3084      O3089   1.372       .  S
C3085      C3086   1.402       .  A
C3085      H3090   1.083       .  S
C3086      C3087   1.411       .  A
C3087      C3088   1.396       .  A
C3087      O3091   1.373       .  S
C3088      H3092   1.084       .  S
O3089      H3094   0.991       .  S
O3091      H3095   0.992       .  S
C3097      C3098   1.398       .  A
C3097      C3102   1.393       .  A
C3097      H3107   1.084       .  S
C3098      C3103   1.479       .  S
C3098      C3099   1.410       .  A
C3099      C3100   1.407       .  A
C3099      O3104   1.372       .  S
C3100      C3101   1.405       .  A
C3100      H3105   1.083       .  S
C3101      C3102   1.413       .  A
C3102      O3106   1.373       .  S
C3103      C3108   1.405       .  A
C3103      C3112   1.404       .  A
O3104      H3120   0.992       .  S
O3106      H3117   0.992       .  S
C3108      C3109   1.397       .  A
C3108      O3113   1.372       .  S
C3109      C3110   1.408       .  A
C3109      H3114   1.083       .  S
C3110      C3111   1.413       .  A
C3111      C3112   1.403       .  A
C3112      H3116   1.084       .  S
O3113      H3118   0.992       .  S
O3115      H3119   0.992       .  S
C3121      C3122   1.402       .  A
C3121      C3126   1.402       .  A
C3121      H3131   1.084       .  S
C3122      C3127   1.492       .  S
C3122      C3123   1.413       .  A
C3123      C3124   1.409       .  A
C3123      O3128   1.372       .  S
C3124      C3125   1.404       .  A
C3124      H3129   1.083       .  S
C3125      C3126   1.413       .  A
C3126      O3130   1.373       .  S
C3127      C3132   1.407       .  A
O3128      H3144   0.992       .  S
O3130      H3141   0.992       .  S
C3132      C3133   1.404       .  A
C3132      O3137   1.373       .  S
C3133      H3138   1.083       .  S
C3134      C3135   1.409       .  A
C3135      C3136   1.408       .  A
C3135      O3139   1.371       .  S
C3136      H3140   1.083       .  S
O3137      H3142   0.992       .  S
O3139      H3143   0.992       .  S
C3145      C3146   1.403       .  A
C3145      C3150   1.407       .  A
C3145      H3155   1.083       .  S
C3146      C3151   1.476       .  S
C3146      C3147   1.404       .  A
C3147      C3148   1.393       .  A
C3147      O3152   1.373       .  S
C3148      C3149   1.406       .  A
C3148      H3153   1.084       .  S
C3149      C3150   1.413       .  A
C3150      O3154   1.371       .  S
C3151      C3156   1.404       .  A
C3151      C3160   1.403       .  A
O3152      H3168   0.992       .  S
O3154      H3165   0.992       .  S
C3156      C3157   1.396       .  A
C3156      O3161   1.371       .  S
C3157      C3158   1.405       .  A
C3157      H3162   1.084       .  S
C3158      C3159   1.413       .  A
C3159      C3160   1.404       .  A
C3159      O3163   1.371       .  S
C3160      H3164   1.084       .  S
O3161      H3166   0.992       .  S
O3163      H3167   0.992       .  S
C3169      C3170   1.398       .  A
C3169      C3174   1.396       .  A
C3169      H3179   1.084       .  S
C3171      O3176   1.372       .  S
C3172      C3173   1.405       .  A
C3172      H3177   1.083       .  S
C3173      C3174   1.414       .  A
C3174      O3178   1.373       .  S
C3175      C3180   1.407       .  A
C3175      C3184   1.404       .  A
O3176      H3192   0.992       .  S
O3178      H3189   0.992       .  S
C3180      C3181   1.400       .  A
C3181      C3182   1.409       .  A
C3181      H3186   1.083       .  S
C3182      C3183   1.414       .  A
C3183      C3184   1.405       .  A
C3183      O3187   1.371       .  S
C3184      H3188   1.084       .  S
O3185      H3190   0.992       .  S
O3187      H3191   0.992       .  S
C3193      H3203   1.083       .  S
C3194      C3195   1.405   1_554  A
C3195      C3196   1.396       .  A
C3195      O3200   1.372       .  S
C3196      C3197   1.405       .  A
C3196      H3201   1.084       .  S
C3197      C3198   1.406   1_556  A
C3199      C3204   1.407       .  A
C3199      C3208   1.407       .  A
O3200      H3216   0.992       .  S
C3204      C3205   1.399       .  A
C3204      O3209   1.372       .  S
C3205      C3206   1.408       .  A
C3205      H3210   1.083       .  S
C3206      C3207   1.412       .  A
C3207      C3208   1.406       .  A
C3207      O3211   1.371       .  S
O3209      H3214   0.992       .  S
O3211      H3215   0.992       .  S
C3217      C3218   1.404       .  A
C3217      C3222   1.402       .  A
C3217      H3227   1.084       .  S
C3218      C3223   1.479       .  S
C3218      C3219   1.405       .  A
C3219      C3220   1.397       .  A
C3219      O3224   1.372       .  S
C3220      C3221   1.407       .  A
C3220      H3225   1.083       .  S
C3221      C3222   1.413       .  A
C3222      O3226   1.371       .  S
C3223      C3228   1.410       .  A
C3223      C3232   1.400       .  A
O3224      H3240   0.992       .  S
O3226      H3237   0.992       .  S
C3228      C3229   1.403       .  A
C3228      O3233   1.371       .  S
C3229      C3230   1.403       .  A
C3229      H3234   1.083       .  S
C3230      C3231   1.410       .  A
C3231      C3232   1.395       .  A
C3231      O3235   1.373       .  S
C3232      H3236   1.084       .  S
O3233      H3238   0.992       .  S
O3235      H3239   0.992       .  S
C3241      C3242   1.409       .  A
C3241      C3246   1.406       .  A
C3241      H3251   1.084   1_655  S
C3242      C3247   1.489   1_655  S
C3242      C3243   1.405       .  A
C3243      C3244   1.402       .  A
C3243      O3248   1.373       .  S
C3244      C3245   1.408       .  A
C3244      H3249   1.084       .  S
C3245      C3246   1.407       .  A
C3246      O3250   1.371       .  S
C3247      C3252   1.415       .  A
C3247      C3256   1.398       .  A
O3248      H3264   0.992       .  S
O3250      H3261   0.992       .  S
C3252      C3253   1.409       .  A
C3252      O3257   1.371   1_455  S
C3253      C3254   1.404       .  A
C3253      H3258   1.083       .  S
C3254      C3255   1.415       .  A
C3255      C3256   1.398       .  A
C3255      O3259   1.372       .  S
C3256      H3260   1.084       .  S
O3257      H3262   0.991       .  S
O3259      H3263   0.992       .  S
C3265      C3266   1.410       .  A
C3265      C3270   1.407       .  A
C3265      H3275   1.083       .  S
C3266      C3271   1.492       .  S
C3266      C3267   1.406       .  A
C3267      C3268   1.401       .  A
C3267      O3272   1.373       .  S
C3268      C3269   1.409       .  A
C3268      H3273   1.084       .  S
C3269      C3270   1.408       .  A
C3270      O3274   1.371       .  S
C3271      C3276   1.415       .  A
C3271      C3280   1.401       .  A
O3272      H3288   0.992       .  S
O3274      H3285   0.992       .  S
C3276      C3277   1.406       .  A
C3276      O3281   1.371       .  S
C3277      C3278   1.403       .  A
C3277      H3282   1.083       .  S
C3278      C3279   1.415       .  A
C3279      C3280   1.400       .  A
C3279      O3283   1.372       .  S
C3280      H3284   1.084       .  S
O3281      H3286   0.992       .  S
O3283      H3287   0.992       .  S
C3289      C3290   1.401       .  A
C3289      C3294   1.400       .  A
C3289      H3299   1.084       .  S
C3290      C3295   1.477       .  S
C3290      C3291   1.405       .  A
C3291      C3292   1.400       .  A
C3291      O3296   1.371       .  S
C3292      C3293   1.408       .  A
C3292      H3297   1.083       .  S
C3293      C3294   1.414       .  A
C3294      O3298   1.371       .  S
C3295      C3300   1.409       .  A
C3295      C3304   1.398       .  A
O3296      H3312   0.992       .  S
O3298      H3309   0.992       .  S
C3300      C3301   1.405       .  A
C3300      O3305   1.371       .  S
C3301      C3302   1.403       .  A
C3301      H3306   1.083       .  S
C3302      C3303   1.414       .  A
C3303      C3304   1.394       .  A
C3303      O3307   1.373       .  S
C3304      H3308   1.084       .  S
O3305      H3310   0.992       .  S
O3307      H3311   0.992       .  S
C3313      C3314   1.401       .  A
C3313      C3318   1.393       .  A
C3313      H3323   1.084       .  S
C3314      C3319   1.487       .  S
C3314      C3315   1.413       .  A
C3315      C3316   1.410       .  A
C3315      O3320   1.373       .  S
C3316      C3317   1.403       .  A
C3316      H3321   1.083       .  S
C3317      C3318   1.409       .  A
C3319      C3324   1.409       .  A
C3319      C3328   1.405       .  A
O3320      H3336   0.992       .  S
O3322      H3333   0.992       .  S
C3324      C3325   1.401       .  A
C3324      O3329   1.372       .  S
C3325      C3326   1.408       .  A
C3325      H3330   1.083       .  S
C3326      C3327   1.412       .  A
C3327      C3328   1.402       .  A
C3327      O3331   1.371       .  S
C3328      H3332   1.084       .  S
O3329      H3334   0.992       .  S
O3331      H3335   0.992       .  S
C3337      C3338   1.402       .  A
C3337      C3342   1.398       .  A
C3337      H3347   1.083       .  S
C3338      C3343   1.481       .  S
C3338      C3339   1.409       .  A
C3339      C3340   1.400       .  A
C3339      O3344   1.372       .  S
C3340      C3341   1.406       .  A
C3340      H3345   1.083       .  S
C3341      C3342   1.413       .  A
C3343      C3348   1.410       .  A
C3343      C3352   1.400       .  A
O3344      H3360   0.991       .  S
O3346      H3357   0.992       .  S
C3348      C3349   1.405       .  A
C3348      O3353   1.372       .  S
C3349      C3350   1.403       .  A
C3349      H3354   1.083       .  S
C3350      C3351   1.414       .  A
C3351      C3352   1.393       .  A
C3351      O3355   1.373       .  S
C3352      H3356   1.084       .  S
O3353      H3358   0.992       .  S
O3355      H3359   0.992       .  S
C3361      C3362   1.401       .  A
C3361      C3366   1.400       .  A
C3361      H3371   1.084       .  S
C3362      C3367   1.484       .  S
C3362      C3363   1.408       .  A
C3363      C3364   1.404       .  A
C3363      O3368   1.373       .  S
C3364      C3365   1.407       .  A
C3364      H3369   1.083       .  S
C3365      C3366   1.415       .  A
C3366      O3370   1.372       .  S
C3367      C3372   1.406       .  A
C3367      C3376   1.409       .  A
O3368      H3384   0.992       .  S
O3370      H3381   0.992       .  S
C3372      C3373   1.392       .  A
C3372      O3377   1.372       .  S
C3373      C3374   1.405       .  A
C3373      H3378   1.084       .  S
C3374      C3375   1.407       .  A
C3375      C3376   1.408       .  A
C3375      O3379   1.371       .  S
C3376      H3380   1.083       .  S
O3377      H3382   0.992       .  S
O3379      H3383   0.992       .  S
