geometry optimzed in LAMMPS
_audit_creation_date              2020-12-01 
_audit_creation_method            'lammps2cif' 
_symmetry_space_group_name_H-M    'P1' 
_symmetry_Int_Tables_number       1 
_symmetry_cell_setting            triclinic 
loop_ 
_symmetry_equiv_pos_as_xyz 
  x,y,z 
_cell_length_a                    55.19087705 
_cell_length_b                    54.419785880033 
_cell_length_c                    41.735247846751214 
_cell_angle_alpha                 90.17429142401429 
_cell_angle_beta                  90.66370638999189 
_cell_angle_gamma                 89.47428135264184 
loop_ 
_atom_site_label 
_atom_site_type_symbol 
_atom_site_fract_x 
_atom_site_fract_y 
_atom_site_fract_z 
_atom_site_charge 
O1          O  0.02978269  0.83134127  0.01596017    -0.70900
O2          O  0.98436415  0.77971354  0.02406542    -0.71100
O3          O  0.03207747  0.78214104  0.01061671    -0.70900
O4          O  0.98230343  0.82891464  0.02930013    -0.71000
O5          O  0.97431974  0.83391149  0.47996849    -0.70900
O6          O  0.02261706  0.78609261  0.45977700    -0.70900
O7          O  0.97476026  0.78493647  0.47402892    -0.70900
O8          O  0.02165403  0.83517218  0.46572566    -0.71100
V9          V  0.00695598  0.80553373  0.01898388     1.35200
V10         V  0.99853219  0.80988019  0.47084406     1.35200
C11         C  0.03321442  0.84150441  0.98919094     0.78400
C12         C  0.97117133  0.77489415  0.50083566     0.78400
C13         C  0.03624269  0.77575160  0.98199552     0.78300
C14         C  0.97040233  0.83999608  0.50875121     0.78300
O15         O  0.82196088  0.98664565  0.47789468    -0.70900
O16         O  0.77437756  0.03569547  0.49502823    -0.71100
O17         O  0.82297915  0.03469437  0.49273896    -0.70900
O18         O  0.77323994  0.98752910  0.48024197    -0.71000
O19         O  0.77297208  0.97626538  0.02813401    -0.70900
O20         O  0.82144068  0.02427508  0.04347829    -0.70900
O21         O  0.77271021  0.02467993  0.04313807    -0.70900
O22         O  0.82180401  0.97611144  0.02831324    -0.71100
V23         V  0.79815356  0.01094435  0.48745753     1.35200
V24         V  0.79717309  0.00050165  0.03478712     1.35200
C25         C  0.82966933  0.97232742  0.00030928     0.78400
C26         C  0.76464857  0.03795952  0.02046187     0.78400
C27         C  0.82977186  0.03685149  0.02078028     0.78300
C28         C  0.76437192  0.97277329  0.00026341     0.78300
O29         O  0.96940422  0.18973861  0.47551502    -0.70900
O30         O  0.01724687  0.23876464  0.48790517    -0.71100
O31         O  0.01807269  0.18977732  0.48000622    -0.70900
O32         O  0.96801820  0.23866871  0.48367003    -0.71000
O33         O  0.96684082  0.23101205  0.03705810    -0.70900
O34         O  0.01689592  0.18322844  0.03089627    -0.70900
O35         O  0.01578065  0.23208577  0.03873548    -0.70900
O36         O  0.96825684  0.18202575  0.02874205    -0.71100
V37         V  0.99314229  0.21422309  0.48277052     1.35200
V38         V  0.99194001  0.20724655  0.03282906     1.35200
C39         C  0.95997980  0.17912568  0.49911328     0.78400
C40         C  0.02510293  0.24395082  0.51569704     0.78400
C41         C  0.02510916  0.17873376  0.50514266     0.78300
C42         C  0.95854578  0.24439194  0.51022088     0.78300
O43         O  0.16771817  0.03752166  0.05349903    -0.70900
O44         O  0.21655939  0.98878307  0.06819502    -0.71100
O45         O  0.21588853  0.03807717  0.06269661    -0.70900
O46         O  0.16840671  0.98830539  0.05941153    -0.71000
O47         O  0.17288981  0.98574897  0.50539866    -0.70900
O48         O  0.21980964  0.03689916  0.50655427    -0.70900
O49         O  0.22110259  0.98708003  0.51189625    -0.70900
O50         O  0.17144731  0.03502202  0.49961303    -0.71100
V51         V  0.19227114  0.01310817  0.05991600     1.35200
V52         V  0.19631792  0.01128623  0.50685913     1.35200
C53         C  0.16136850  0.04535776  0.52315756     0.78400
C54         C  0.22662563  0.97939173  0.53963460     0.78400
C55         C  0.22599283  0.04692525  0.53281177     0.78300
C56         C  0.16272939  0.97931836  0.53106659     0.78300
C57         C  0.20204133  0.67529286  0.98367818    -0.01600
C58         C  0.33318687  0.81984518  0.49941422    -0.01600
N59         N  0.49959476  0.80800051  0.20737203    -0.35700
N60         N  0.46452775  0.80882199  0.25881106    -0.56300
N61         N  0.50442773  0.80324708  0.30475545    -0.35700
N62         N  0.53936189  0.80707857  0.25328333    -0.56300
C63         C  0.47983540  0.81702694  0.19167107     0.27900
C64         C  0.51891646  0.81188736  0.18849111     0.27900
C65         C  0.48517275  0.80638223  0.32418035     0.27900
C66         C  0.52450602  0.80996008  0.32159047     0.27900
C67         C  0.44945574  0.80743848  0.23305218     0.36500
C68         C  0.45203404  0.80043031  0.28420190     0.36500
C69         C  0.55174199  0.80063648  0.22672041     0.36500
C70         C  0.55445287  0.80300709  0.27846329     0.36500
C71         C  0.48686776  0.82711069  0.16274624    -0.21000
C72         C  0.51147580  0.82350620  0.16053778    -0.21000
C73         C  0.49303772  0.81501645  0.35376091    -0.21000
C74         C  0.51777920  0.81763940  0.35198017    -0.21000
C75         C  0.42720676  0.79840471  0.24207413    -0.22000
C76         C  0.42897808  0.79348303  0.27433345    -0.22000
C77         C  0.57473939  0.79223278  0.23516907    -0.22000
C78         C  0.57661411  0.79423705  0.26792289    -0.22000
C79         C  0.45551231  0.81442323  0.20156615    -0.17400
C80         C  0.54286676  0.80397178  0.19506940    -0.17400
C81         C  0.54875426  0.80784249  0.31075504    -0.17400
C82         C  0.46083157  0.80067786  0.31631672    -0.17400
H83         H  0.47545233  0.83576417  0.14471918     0.15500
H84         H  0.52266503  0.82892212  0.14067887     0.15500
H85         H  0.48203501  0.81928093  0.37438431     0.15500
H86         H  0.52942596  0.82422230  0.37111759     0.15500
H87         H  0.41156643  0.79509989  0.22683168     0.13800
H88         H  0.41479232  0.78574038  0.28871530     0.13800
H89         H  0.58885319  0.78554740  0.21955492     0.13800
H90         H  0.59230672  0.78931336  0.28240518     0.13800
H91         H  0.49964786  0.79708538  0.22773893     0.27100
H92         H  0.50398513  0.79451269  0.28260985     0.27100
C93         C  0.66597898  0.81275038  0.51303267    -0.01600
C94         C  0.80522530  0.68011496  0.48831848    -0.01600
C95         C  0.32714892  0.20764578  0.00148617    -0.01600
C96         C  0.18737634  0.34150682  0.98079513    -0.01600
N97         N  0.22020019  0.50256463  0.18650554    -0.35700
N98         N  0.22387459  0.54432464  0.23105477    -0.56300
N99         N  0.22815104  0.50967648  0.28344939    -0.35700
N100        N  0.22756069  0.46832167  0.23841572    -0.56300
C101        C  0.22331369  0.52166044  0.16631231     0.27900
C102        C  0.22559689  0.48173280  0.17002134     0.27900
C103        C  0.23319189  0.53098826  0.29890211     0.27900
C104        C  0.23596440  0.49106547  0.30248183     0.27900
C105        C  0.21626147  0.55626669  0.20431543     0.36500
C106        C  0.22032269  0.55994078  0.25593259     0.36500
C107        C  0.22272830  0.45199824  0.21470779     0.36500
C108        C  0.22638623  0.45582343  0.26629524     0.36500
C109        C  0.23091594  0.51291292  0.13681556    -0.21000
C110        C  0.23256719  0.48778155  0.13923325    -0.21000
C111        C  0.24455591  0.52583806  0.32795772    -0.21000
C112        C  0.24618255  0.50066214  0.33029638    -0.21000
C113        C  0.20796044  0.57960364  0.21225986    -0.22000
C114        C  0.21070318  0.58198515  0.24490962    -0.22000
C115        C  0.21874947  0.42895758  0.22756663    -0.22000
C116        C  0.22116688  0.43135005  0.26021231    -0.22000
C117        C  0.21758160  0.54656003  0.17281959    -0.17400
C118        C  0.22323706  0.45738430  0.18158355    -0.17400
C119        C  0.23182730  0.46579039  0.29688595    -0.17400
C120        C  0.22639805  0.55482593  0.28829859    -0.17400
H121        H  0.23479618  0.52356745  0.11565495     0.15500
H122        H  0.23816213  0.47541256  0.12031317     0.15500
H123        H  0.25073598  0.53883204  0.34587927     0.15500
H124        H  0.25366435  0.49059105  0.35048183     0.15500
H125        H  0.20059155  0.59349366  0.19633279     0.13800
H126        H  0.20591889  0.59802439  0.25895365     0.13800
H127        H  0.21473933  0.41210897  0.21481222     0.13800
H128        H  0.21962802  0.41660495  0.27737654     0.13800
H129        H  0.21196429  0.50357801  0.20876379     0.27100
H130        H  0.21721558  0.50785536  0.26315830     0.27100
N131        N  0.49270700  0.21366040  0.20220551    -0.35700
N132        N  0.53432788  0.21517508  0.24575082    -0.56300
N133        N  0.50107883  0.21388771  0.29960697    -0.35700
N134        N  0.45952249  0.21674334  0.25607109    -0.56300
C135        C  0.51095912  0.21802784  0.18163120     0.27900
C136        C  0.47166875  0.21969632  0.18697643     0.27900
C137        C  0.52220654  0.21927195  0.31477737     0.27900
C138        C  0.48293863  0.21933977  0.32007627     0.27900
C139        C  0.54579325  0.20927333  0.21823827     0.36500
C140        C  0.55017494  0.21023940  0.26991286     0.36500
C141        C  0.44364890  0.21199185  0.23195249     0.36500
C142        C  0.44806343  0.21123778  0.28359748     0.36500
C143        C  0.50144601  0.22704209  0.15307175    -0.21000
C144        C  0.47669396  0.22832990  0.15654381    -0.21000
C145        C  0.51736079  0.22856792  0.34506018    -0.21000
C146        C  0.49261155  0.22838964  0.34849996    -0.21000
C147        C  0.56899468  0.20060448  0.22505292    -0.22000
C148        C  0.57184068  0.20146304  0.25772933    -0.22000
C149        C  0.42199836  0.20366437  0.24416860    -0.22000
C150        C  0.42488193  0.20289040  0.27683072    -0.22000
C151        C  0.53575967  0.21241654  0.18710005    -0.17400
C152        C  0.44808289  0.21589813  0.19910593    -0.17400
C153        C  0.45806927  0.21461198  0.31468305    -0.17400
C154        C  0.54569430  0.21434908  0.30276548    -0.17400
H155        H  0.51132864  0.23207481  0.13185984     0.15500
H156        H  0.46387765  0.23459529  0.13846540     0.15500
H157        H  0.53028563  0.23459615  0.36305226     0.15500
H158        H  0.48284204  0.23416485  0.36960708     0.15500
H159        H  0.58250572  0.19410777  0.20841114     0.13800
H160        H  0.58791888  0.19588985  0.27101580     0.13800
H161        H  0.40592048  0.19830101  0.23090028     0.13800
H162        H  0.41140812  0.19665874  0.29348422     0.13800
H163        H  0.49431520  0.20423578  0.22375887     0.27100
H164        H  0.49928587  0.20419485  0.27822360     0.27100
C165        C  0.66219003  0.20291940  0.00008576    -0.01600
C166        C  0.79298467  0.34148922  0.48315864    -0.01600
N167        N  0.80247625  0.50993175  0.18773183    -0.35700
N168        N  0.80714111  0.47540211  0.24050467    -0.56300
N169        N  0.80218949  0.51575389  0.28644885    -0.35700
N170        N  0.80031981  0.55050214  0.23350007    -0.56300
C171        C  0.81017661  0.48963042  0.17180039     0.27900
C172        C  0.80563871  0.52938005  0.16810938     0.27900
C173        C  0.80918409  0.49720379  0.30616671     0.27900
C174        C  0.80574703  0.53714336  0.30252304     0.27900
C175        C  0.80655917  0.45916036  0.21588198     0.36500
C176        C  0.80545692  0.46208139  0.26770324     0.36500
C177        C  0.79532789  0.56306666  0.20625277     0.36500
C178        C  0.79596663  0.56617664  0.25801680     0.36500
C179        C  0.81828431  0.49630908  0.14175167    -0.21000
C180        C  0.81529541  0.52134821  0.13935982    -0.21000
C181        C  0.81677649  0.50693792  0.33534030    -0.21000
C182        C  0.81479549  0.53207147  0.33294635    -0.21000
C183        C  0.80459430  0.43545134  0.22746615    -0.22000
C184        C  0.80410637  0.43725291  0.26017154    -0.22000
C185        C  0.78772380  0.58675674  0.21349258    -0.22000
C186        C  0.78822288  0.58876130  0.24626645    -0.22000
C187        C  0.80935002  0.46513867  0.18319459    -0.17400
C188        C  0.79932560  0.55408111  0.17492649    -0.17400
C189        C  0.80056571  0.56107997  0.29072881    -0.17400
C190        C  0.80780071  0.47172562  0.29917624    -0.17400
H191        H  0.82566556  0.48440596  0.12340907     0.15500
H192        H  0.81989283  0.53241271  0.11883499     0.15500
H193        H  0.82317553  0.49705440  0.35628558     0.15500
H194        H  0.81956018  0.54507646  0.35158669     0.15500
H195        H  0.80409782  0.41849478  0.21386665     0.13800
H196        H  0.80356333  0.42178618  0.27631594     0.13800
H197        H  0.78274417  0.60123913  0.19689868     0.13800
H198        H  0.78362246  0.60507293  0.25988852     0.13800
H199        H  0.79324049  0.51023137  0.20927944     0.27100
H200        H  0.79337365  0.51379404  0.26448540     0.27100
C201        C  0.79906606  0.42038528  0.11158142     0.19600
C202        C  0.78545624  0.42208517  0.08304597    -0.18500
C203        C  0.78506749  0.40269954  0.06102364    -0.10800
C204        C  0.79838834  0.38098486  0.06691694     0.21900
C205        C  0.81160164  0.37894321  0.09573547    -0.20100
C206        C  0.81207748  0.39843857  0.11781878    -0.10900
C207        C  0.79816677  0.36011153  0.04371590    -0.15100
C208        C  0.79618012  0.36369074  0.01181554    -0.29000
C209        C  0.79815964  0.44159044  0.13433321    -0.03200
C210        C  0.81273927  0.44434551  0.16016436    -0.39800
H211        H  0.77493042  0.43851282  0.07777012     0.13000
H212        H  0.77391445  0.40463931  0.03967158     0.12600
H213        H  0.82172596  0.36227429  0.10106468     0.12100
H214        H  0.82233503  0.39592360  0.13977778     0.12300
H215        H  0.80038023  0.34153205  0.05281822     0.15100
H216        H  0.79519388  0.38251656  0.00325872     0.13800
H217        H  0.78456599  0.45577123  0.12970164     0.11500
H218        H  0.82634624  0.43057725  0.16610301     0.13500
C219        C  0.79771120  0.41940786  0.36013094     0.19600
C220        C  0.77721649  0.40856271  0.37355858    -0.18500
C221        C  0.77966166  0.39134952  0.39826768    -0.10800
C222        C  0.80280144  0.38440446  0.40978282     0.21900
C223        C  0.82327079  0.39471027  0.39567033    -0.20100
C224        C  0.82082926  0.41184613  0.37098058    -0.10900
C225        C  0.80645825  0.36846134  0.43828920    -0.15100
C226        C  0.78952207  0.35348858  0.45038558    -0.29000
C227        C  0.79431079  0.43802928  0.33443067    -0.03200
C228        C  0.81144769  0.45419776  0.32615549    -0.39800
H229        H  0.75920986  0.41387251  0.36542798     0.13000
H230        H  0.76337789  0.38430547  0.40890752     0.12600
H231        H  0.84129067  0.38966382  0.40403924     0.12100
H232        H  0.83713941  0.41896326  0.36049700     0.12300
H233        H  0.82365936  0.37002094  0.45106656     0.15100
H234        H  0.77257387  0.35082344  0.43744338     0.13800
H235        H  0.77696170  0.43863205  0.32182327     0.11500
H236        H  0.82824244  0.45539906  0.33976680     0.13500
C237        C  0.74418826  0.29215651  0.98160554     0.19600
C238        C  0.74364880  0.26877445  0.96729606    -0.18500
C239        C  0.72406224  0.25304594  0.97183938    -0.10800
C240        C  0.70433073  0.26036928  0.99081771     0.21900
C241        C  0.70460639  0.28397379  0.00460209    -0.20100
C242        C  0.72431671  0.29968236  0.00021128    -0.10900
C243        C  0.68295515  0.24423374  0.99595128    -0.15100
C244        C  0.68393541  0.21945927  0.99390656    -0.29000
C245        C  0.76363164  0.30698526  0.47137350    -0.03200
C246        C  0.77086817  0.32572287  0.49039723    -0.39800
H247        H  0.75502649  0.26209852  0.44680350     0.13000
H248        H  0.72429603  0.23542179  0.95981428     0.12600
H249        H  0.68951417  0.29027418  0.01892028     0.12100
H250        H  0.72361794  0.31781584  0.01084616     0.12300
H251        H  0.66602057  0.25292412  0.00299631     0.15100
H252        H  0.70107340  0.21061149  0.98827911     0.13800
H253        H  0.77422815  0.30260828  0.45030072     0.11500
H254        H  0.76069021  0.32981575  0.51186218     0.13500
C255        C  0.62558173  0.20191967  0.42263350     0.19600
C256        C  0.63049936  0.20703056  0.39043508    -0.18500
C257        C  0.61186382  0.20706284  0.36734199    -0.10800
C258        C  0.58790426  0.20169856  0.37604751     0.21900
C259        C  0.58318636  0.19584372  0.40806846    -0.20100
C260        C  0.60173567  0.19600436  0.43113419    -0.10900
C261        C  0.56739998  0.20147428  0.35259757    -0.15100
C262        C  0.56701524  0.21438879  0.32512365    -0.29000
C263        C  0.64577872  0.20136935  0.44652798    -0.03200
C264        C  0.64240098  0.20594399  0.47793249    -0.39800
H265        H  0.64880898  0.21107729  0.38315657     0.13000
H266        H  0.61642801  0.21083549  0.34272823     0.12600
H267        H  0.56500424  0.19122817  0.41532802     0.12100
H268        H  0.59739498  0.19094021  0.45543860     0.12300
H269        H  0.55141249  0.19109449  0.35889057     0.15100
H270        H  0.58271934  0.22483425  0.31810148     0.13800
H271        H  0.66385165  0.19671762  0.43825099     0.11500
H272        H  0.62461961  0.21211980  0.48564892     0.13500
C273        C  0.61931471  0.20099356  0.07423402     0.19600
C274        C  0.60306102  0.18351073  0.08578199    -0.18500
C275        C  0.58804565  0.18890790  0.11165986    -0.10800
C276        C  0.58872868  0.21212921  0.12652035     0.21900
C277        C  0.60545609  0.22942686  0.11564056    -0.20100
C278        C  0.62048346  0.22404542  0.08960673    -0.10900
C279        C  0.57284369  0.21834583  0.15406122    -0.15100
C280        C  0.55108346  0.20787371  0.15837205    -0.29000
C281        C  0.63285969  0.19509648  0.04446971    -0.03200
C282        C  0.65218708  0.20755708  0.03370263    -0.39800
H283        H  0.60178278  0.16560950  0.07448680     0.13000
H284        H  0.57605693  0.17475720  0.12007785     0.12600
H285        H  0.60650645  0.24736745  0.12685984     0.12100
H286        H  0.63234875  0.23825110  0.08110650     0.12300
H287        H  0.57910273  0.23203701  0.17118913     0.15100
H288        H  0.54358022  0.19609652  0.13977958     0.13800
H289        H  0.62586773  0.18021862  0.02968063     0.11500
H290        H  0.66031686  0.22173182  0.04854651     0.13500
C291        C  0.20707518  0.39149913  0.41879205     0.19600
C292        C  0.22976588  0.40079498  0.41033182    -0.18500
C293        C  0.23213517  0.41623113  0.38382666    -0.10800
C294        C  0.21167896  0.42288373  0.36520452     0.21900
C295        C  0.18896329  0.41375973  0.37392333    -0.20100
C296        C  0.18661433  0.39830797  0.40038475    -0.10900
C297        C  0.21281935  0.43929720  0.33676298    -0.15100
C298        C  0.23316982  0.44901387  0.32488918    -0.29000
C299        C  0.20558587  0.37542186  0.44744353    -0.03200
C300        C  0.18710757  0.36002676  0.45343556    -0.39800
H301        H  0.24580668  0.39599996  0.42425054     0.13000
H302        H  0.25000701  0.42280833  0.37836271     0.12600
H303        H  0.17285061  0.41870777  0.36024834     0.12100
H304        H  0.16868386  0.39220042  0.40652927     0.12300
H305        H  0.19578666  0.44373619  0.32463849     0.15100
H306        H  0.25071081  0.44600534  0.33613853     0.13800
H307        H  0.22092386  0.37552252  0.46403181     0.11500
H308        H  0.17196874  0.35888004  0.43668563     0.13500
C309        C  0.20806447  0.41640393  0.10695369     0.19600
C310        C  0.19418403  0.42050461  0.07899421    -0.18500
C311        C  0.19311857  0.40288798  0.05451662    -0.10800
C312        C  0.20580985  0.38043918  0.05744318     0.21900
C313        C  0.21983479  0.37633770  0.08525311    -0.20100
C314        C  0.22089231  0.39397511  0.10980964    -0.10900
C315        C  0.20578439  0.36148270  0.03146922    -0.15100
C316        C  0.18773542  0.35931367  0.00947242    -0.29000
C317        C  0.20865686  0.43623619  0.13188272    -0.03200
C318        C  0.22299967  0.43630792  0.15833415    -0.39800
H319        H  0.18429482  0.43763256  0.07583606     0.13000
H320        H  0.18279905  0.40728896  0.03308295     0.12600
H321        H  0.22997199  0.35932292  0.08806182     0.12100
H322        H  0.23176928  0.38976125  0.13077865     0.12300
H323        H  0.22123047  0.34906732  0.03075430     0.15100
H324        H  0.17229990  0.37174984  0.01089628     0.13800
H325        H  0.19686538  0.45207437  0.12790518     0.11500
H326        H  0.23446156  0.42061899  0.16394516     0.13500
C327        C  0.23428853  0.29018294  0.49745052     0.19600
C328        C  0.24509152  0.27805165  0.02568827    -0.18500
C329        C  0.26366279  0.26035774  0.02301065    -0.10800
C330        C  0.27114876  0.25419653  0.48945752     0.21900
C331        C  0.25918924  0.26446798  0.46279150    -0.20100
C332        C  0.24106029  0.28228362  0.46665579    -0.10900
C333        C  0.28947006  0.23446030  0.48393870    -0.15100
C334        C  0.30813648  0.22756651  0.00866295    -0.29000
C335        C  0.21351592  0.30606859  0.00155878    -0.03200
C336        C  0.20906513  0.32373724  0.97957191    -0.39800
H337        H  0.23967094  0.28419543  0.04927441     0.13000
H338        H  0.27189284  0.25302718  0.04465351     0.12600
H339        H  0.26377858  0.25853351  0.43879350     0.12100
H340        H  0.23188206  0.28923555  0.44545651     0.12300
H341        H  0.28821190  0.22427037  0.46154158     0.15100
H342        H  0.31023550  0.23878625  0.03005548     0.13800
H343        H  0.20233470  0.30531275  0.02278554     0.11500
H344        H  0.22079846  0.32780994  0.46004847     0.13500
C345        C  0.36531112  0.20455914  0.08212542     0.19600
C346        C  0.36143208  0.21093456  0.11431789    -0.18500
C347        C  0.38062458  0.21071644  0.13664680    -0.10800
C348        C  0.40420796  0.20397762  0.12721765     0.21900
C349        C  0.40787303  0.19673924  0.09534503    -0.20100
C350        C  0.38874238  0.19696126  0.07307752    -0.10900
C351        C  0.42534914  0.20358372  0.14977863    -0.15100
C352        C  0.42658070  0.21686464  0.17702733    -0.29000
C353        C  0.34450858  0.20532286  0.05887163    -0.03200
C354        C  0.34749477  0.20762342  0.02695871    -0.39800
H355        H  0.34350376  0.21629045  0.12218431     0.13000
H356        H  0.37677242  0.21551525  0.16123488     0.12600
H357        H  0.42570626  0.19097905  0.08754800     0.12100
H358        H  0.39243248  0.19076928  0.04896972     0.12300
H359        H  0.44097336  0.19245244  0.14315666     0.15100
H360        H  0.41124020  0.22802333  0.18440842     0.13800
H361        H  0.32639304  0.20517369  0.06854136     0.11500
H362        H  0.36580102  0.21035563  0.01854472     0.13500
C363        C  0.40446013  0.21669300  0.37419397     0.19600
C364        C  0.38565901  0.23326525  0.38152885    -0.18500
C365        C  0.36975806  0.22851981  0.40668470    -0.10800
C366        C  0.37227290  0.20685924  0.42491498     0.21900
C367        C  0.39076384  0.19011169  0.41701018    -0.20100
C368        C  0.40658440  0.19485324  0.39198298    -0.10900
C369        C  0.35685131  0.20091619  0.45287490    -0.15100
C370        C  0.33930460  0.21551978  0.46512985    -0.29000
C371        C  0.42068133  0.22195047  0.34683483    -0.03200
C372        C  0.44266918  0.21134034  0.34348720    -0.39800
H373        H  0.38335600  0.25003264  0.36785859     0.13000
H374        H  0.35574353  0.24194072  0.41156166     0.12600
H375        H  0.39306054  0.17318182  0.43034782     0.12100
H376        H  0.42012558  0.18106642  0.38638211     0.12300
H377        H  0.36100549  0.18385872  0.46537732     0.15100
H378        H  0.33460351  0.23270123  0.45346231     0.13800
H379        H  0.41429635  0.23483718  0.32869990     0.11500
H380        H  0.45034713  0.20042708  0.36287029     0.13500
C381        C  0.79419125  0.64520735  0.40736913     0.19600
C382        C  0.80549644  0.64703364  0.37758438    -0.18500
C383        C  0.80377201  0.62803717  0.35501784    -0.10800
C384        C  0.79050434  0.60664780  0.36169229     0.21900
C385        C  0.77822799  0.60541148  0.39095573    -0.20100
C386        C  0.78000763  0.62442042  0.41354656    -0.10900
C387        C  0.78901186  0.58524342  0.33919617    -0.15100
C388        C  0.80259537  0.58263323  0.31274770    -0.29000
C389        C  0.79806150  0.66503114  0.43152828    -0.03200
C390        C  0.79828946  0.66075220  0.46331180    -0.39800
H391        H  0.81623064  0.66300295  0.37202611     0.13000
H392        H  0.81297847  0.63042723  0.33259123     0.12600
H393        H  0.76747408  0.58947746  0.39660449     0.12100
H394        H  0.77025813  0.62274244  0.43576269     0.12300
H395        H  0.77650683  0.57062278  0.34495336     0.15100
H396        H  0.81502185  0.59683013  0.30565757     0.13800
H397        H  0.80307993  0.68313005  0.42305514     0.11500
H398        H  0.79435013  0.64235060  0.47167833     0.13500
C399        C  0.81493282  0.60474883  0.11451784     0.19600
C400        C  0.79366719  0.61366790  0.09949702    -0.18500
C401        C  0.79503655  0.62826977  0.07195875    -0.10800
C402        C  0.81767771  0.63383792  0.05877684     0.21900
C403        C  0.83880406  0.62495757  0.07388417    -0.20100
C404        C  0.83746162  0.61094331  0.10180290    -0.10900
C405        C  0.81979072  0.64700928  0.02791415    -0.15100
C406        C  0.80501174  0.66565507  0.01887908    -0.29000
C407        C  0.81431136  0.58901701  0.14345807    -0.03200
C408        C  0.79765058  0.57148274  0.14752909    -0.39800
H409        H  0.77604586  0.60943572  0.10907550     0.13000
H410        H  0.77842027  0.63450328  0.06043622     0.12600
H411        H  0.85641278  0.62885441  0.06398695     0.12100
H412        H  0.85406571  0.60432793  0.11302000     0.12300
H413        H  0.83422735  0.64124862  0.01198453     0.15100
H414        H  0.79154550  0.67244639  0.03559734     0.13800
H415        H  0.82916776  0.59040339  0.16068726     0.11500
H416        H  0.78409771  0.56808798  0.12900518     0.13500
C417        C  0.74749430  0.71780442  0.98554126     0.19600
C418        C  0.72657383  0.71755574  0.00433209    -0.18500
C419        C  0.70996779  0.73716644  0.00337204    -0.10800
C420        C  0.71316168  0.76106000  0.49039765     0.21900
C421        C  0.73429297  0.76159417  0.47202848    -0.20100
C422        C  0.75113630  0.73780191  0.96492832    -0.10900
C423        C  0.69662283  0.78284140  0.48949274    -0.15100
C424        C  0.68095715  0.78882771  0.51294958    -0.29000
C425        C  0.76473977  0.69665172  0.98738173    -0.03200
C426        C  0.78733777  0.70169072  0.48672117    -0.39800
H427        H  0.72316132  0.70218792  0.02003783     0.13000
H428        H  0.69400109  0.73606786  0.01803569     0.12600
H429        H  0.73828602  0.77750471  0.45753310     0.12100
H430        H  0.76646752  0.74291938  0.45732976     0.12300
H431        H  0.69901917  0.79559859  0.46992841     0.15100
H432        H  0.68111884  0.77415227  0.02662982     0.13800
H433        H  0.75770413  0.67893576  0.99455157     0.11500
H434        H  0.79454963  0.71971709  0.48152145     0.13500
C435        C  0.59583894  0.80437038  0.13456111     0.19600
C436        C  0.61560259  0.81988271  0.12959104    -0.18500
C437        C  0.63006537  0.81721587  0.10247136    -0.10800
C438        C  0.62501094  0.79887161  0.07952726     0.21900
C439        C  0.60572392  0.78285051  0.08505671    -0.20100
C440        C  0.59135772  0.78543840  0.11223376    -0.10900
C441        C  0.63898008  0.79573700  0.04943865    -0.15100
C442        C  0.65470987  0.81228739  0.03784609    -0.29000
C443        C  0.58066896  0.80839761  0.16343432    -0.03200
C444        C  0.55846713  0.79882918  0.16690375    -0.39800
H445        H  0.61976591  0.83432253  0.14665664     0.13000
H446        H  0.64510653  0.82957254  0.09991940     0.12600
H447        H  0.60159342  0.76831965  0.06810128     0.12100
H448        H  0.57697437  0.77238985  0.11555822     0.12300
H449        H  0.63516291  0.77954680  0.03496744     0.15100
H450        H  0.65859099  0.82880673  0.05145547     0.13800
H451        H  0.58757120  0.82059610  0.18200679     0.11500
H452        H  0.55013031  0.78867296  0.14737700     0.13500
C453        C  0.63014182  0.80914712  0.43104821     0.19600
C454        C  0.63262438  0.81867900  0.40005413    -0.18500
C455        C  0.61415088  0.81584715  0.37698511    -0.10800
C456        C  0.59273574  0.80319230  0.38441870     0.21900
C457        C  0.59066286  0.79307265  0.41515080    -0.20100
C458        C  0.60906461  0.79593189  0.43813703    -0.10900
C459        C  0.57225589  0.79965535  0.36113742    -0.15100
C460        C  0.56955370  0.81196469  0.33334573    -0.29000
C461        C  0.65015135  0.81221418  0.45506591    -0.03200
C462        C  0.64621938  0.81222169  0.48690354    -0.39800
H463        H  0.64887103  0.82847926  0.39371338     0.13000
H464        H  0.61701571  0.82337721  0.35343497     0.12600
H465        H  0.57465153  0.78288078  0.42148872     0.12100
H466        H  0.60683928  0.78733961  0.46124337     0.12300
H467        H  0.55833904  0.78658988  0.36749999     0.15100
H468        H  0.58325404  0.82472624  0.32567741     0.13800
H469        H  0.66827656  0.81514865  0.44624631     0.11500
H470        H  0.62753569  0.81196241  0.49475983     0.13500
C471        C  0.40620483  0.80191598  0.37500347     0.19600
C472        C  0.38465669  0.81577893  0.37610967    -0.18500
C473        C  0.36925458  0.81434629  0.40236077    -0.10800
C474        C  0.37513251  0.79913121  0.42858288     0.21900
C475        C  0.39599036  0.78423858  0.42684261    -0.20100
C476        C  0.41140935  0.78557518  0.40042028    -0.10900
C477        C  0.36021890  0.79881170  0.45819514    -0.15100
C478        C  0.34688228  0.81839178  0.46772240    -0.29000
C479        C  0.42251127  0.80563478  0.34711004    -0.03200
C480        C  0.44447318  0.79500659  0.34361233    -0.39800
H481        H  0.37980610  0.82809686  0.35667684     0.13000
H482        H  0.35277983  0.82525159  0.40189408     0.12600
H483        H  0.40073260  0.77200071  0.44640509     0.12100
H484        H  0.42738549  0.77398081  0.40049039     0.12300
H485        H  0.36151672  0.78280268  0.47361816     0.15100
H486        H  0.34675494  0.83457019  0.45263400     0.13800
H487        H  0.41647796  0.81866258  0.32895020     0.11500
H488        H  0.45194209  0.78333115  0.36229387     0.13500
C489        C  0.41601593  0.81386985  0.12397060     0.19600
C490        C  0.40950875  0.79532669  0.10217172    -0.18500
C491        C  0.39319034  0.80016607  0.07702557    -0.10800
C492        C  0.38335239  0.82386982  0.07269094     0.21900
C493        C  0.39032903  0.84264370  0.09393300    -0.20100
C494        C  0.40630405  0.83766342  0.11958913    -0.10900
C495        C  0.36606702  0.82919237  0.04587728    -0.15100
C496        C  0.34820442  0.81344628  0.03811475    -0.29000
C497        C  0.43443279  0.80819634  0.14927633    -0.03200
C498        C  0.43543686  0.81949244  0.17803742    -0.39800
H499        H  0.41708583  0.77698550  0.10463561     0.13000
H500        H  0.38862574  0.78544978  0.06057247     0.12600
H501        H  0.38319930  0.86110701  0.09085237     0.12100
H502        H  0.41152777  0.85254872  0.13540450     0.12300
H503        H  0.36730858  0.84659652  0.03335819     0.15100
H504        H  0.34691265  0.79688358  0.05245709     0.13800
H505        H  0.44773481  0.79390679  0.14411749     0.11500
H506        H  0.42109824  0.83215833  0.18497175     0.13500
C507        C  0.24488210  0.73673815  0.49035152     0.19600
C508        C  0.25421967  0.74906761  0.51732926    -0.18500
C509        C  0.27121407  0.76776360  0.51410792    -0.10800
C510        C  0.27930177  0.77475916  0.48366302     0.21900
C511        C  0.26949211  0.76299232  0.45652495    -0.20100
C512        C  0.25256453  0.74406339  0.45975897    -0.10900
C513        C  0.29732650  0.79475133  0.47978570    -0.15100
C514        C  0.31498962  0.79895991  0.50168351    -0.29000
C515        C  0.22686805  0.71688741  0.49560313    -0.03200
C516        C  0.21923354  0.69654842  0.97684542    -0.39800
H517        H  0.24839659  0.74414111  0.54114621     0.13000
H518        H  0.27765666  0.77699626  0.53552782     0.12600
H519        H  0.27511124  0.76831715  0.43277194     0.12100
H520        H  0.24536003  0.73557992  0.43826701     0.12300
H521        H  0.29653243  0.80580238  0.45815495     0.15100
H522        H  0.31651567  0.78676410  0.52220222     0.13800
H523        H  0.21865518  0.71602691  0.51912349     0.11500
H524        H  0.22786263  0.69719997  0.95366056     0.13500
C525        C  0.21593062  0.59840206  0.10885346     0.19600
C526        C  0.23274665  0.61557351  0.09785279    -0.18500
C527        C  0.22799289  0.62941024  0.07012368    -0.10800
C528        C  0.20607002  0.62649986  0.05290639     0.21900
C529        C  0.18924283  0.60946090  0.06415081    -0.20100
C530        C  0.19395907  0.59573566  0.09179549    -0.10900
C531        C  0.19946180  0.64081128  0.02356109    -0.15100
C532        C  0.21163218  0.66033174  0.01226882    -0.29000
C533        C  0.22162681  0.58385339  0.13830169    -0.03200
C534        C  0.21116257  0.56215108  0.14457541    -0.39800
H535        H  0.24975508  0.61812171  0.11059410     0.13000
H536        H  0.24163766  0.64212516  0.06240816     0.12600
H537        H  0.17211523  0.60693759  0.05167681     0.12100
H538        H  0.18007090  0.58341462  0.09991109     0.12300
H539        H  0.18282285  0.63570316  0.01112850     0.15100
H540        H  0.22823794  0.66614665  0.02400890     0.13800
H541        H  0.23560361  0.59057027  0.15457090     0.11500
H542        H  0.19902748  0.55401902  0.12696727     0.13500
C543        C  0.21522922  0.59538665  0.36369487     0.19600
C544        C  0.19521311  0.59935618  0.38363146    -0.18500
C545        C  0.19596827  0.61709839  0.40808244    -0.10800
C546        C  0.21700993  0.63102023  0.41348935     0.21900
C547        C  0.23710866  0.62681242  0.39378798    -0.20100
C548        C  0.23620923  0.60937035  0.36902489    -0.10900
C549        C  0.21925073  0.64885952  0.44058250    -0.15100
C550        C  0.20034729  0.66116991  0.45349255    -0.29000
C551        C  0.21434788  0.57538125  0.33920044    -0.03200
C552        C  0.22694384  0.57572877  0.31168478    -0.39800
H553        H  0.17897080  0.58855707  0.38040048     0.13000
H554        H  0.18036013  0.61925172  0.42331774     0.12600
H555        H  0.25366742  0.63698174  0.39771036     0.12100
H556        H  0.25222905  0.60631607  0.35478952     0.12300
H557        H  0.23733871  0.65245684  0.44993372     0.15100
H558        H  0.18232293  0.65851541  0.44342919     0.13800
H559        H  0.20258958  0.55988185  0.34371250     0.11500
H560        H  0.23704124  0.59199398  0.30530815     0.13500
C561        C  0.29037788  0.87507383  0.52289744     0.19600
C562        C  0.29120958  0.89138017  0.06271880    -0.18500
C563        C  0.27699353  0.91286586  0.06091950    -0.10800
C564        C  0.26422480  0.92028594  0.52183993     0.21900
C565        C  0.27021877  0.90808966  0.49324895    -0.20100
C566        C  0.28302452  0.88581178  0.49369903    -0.10900
C567        C  0.24994722  0.94371652  0.51939985    -0.15100
C568        C  0.24327610  0.95810786  0.54424633    -0.29000
C569        C  0.31461296  0.85700614  0.03707494    -0.03200
C570        C  0.31960520  0.84460354  0.50061262    -0.39800
H571        H  0.29454172  0.88297042  0.08586425     0.13000
H572        H  0.26976212  0.92017613  0.08293585     0.12600
H573        H  0.26479763  0.91575032  0.47030207     0.12100
H574        H  0.28670677  0.87684339  0.47107614     0.12300
H575        H  0.24392183  0.94906187  0.49550392     0.15100
H576        H  0.24901454  0.95401425  0.07581410     0.13800
H577        H  0.32469711  0.85338381  0.05903007     0.11500
H578        H  0.32224368  0.85745214  0.48115524     0.13500
C579        C  0.26301446  0.10460245  0.51118909     0.19600
C580        C  0.27365083  0.11411869  0.48350059    -0.18500
C581        C  0.28582341  0.13663054  0.48430444    -0.10800
C582        C  0.28922412  0.14848291  0.01971973     0.21900
C583        C  0.28524678  0.13502715  0.04772850    -0.20100
C584        C  0.26463268  0.11837775  0.53976424    -0.10900
C585        C  0.30125630  0.17280020  0.02235817    -0.15100
C586        C  0.31494893  0.18245253  0.99905339    -0.29000
C587        C  0.24905420  0.08123601  0.50887739    -0.03200
C588        C  0.24287491  0.06782844  0.53455749    -0.39800
H589        H  0.27236067  0.10417737  0.46102553     0.13000
H590        H  0.29326663  0.14329371  0.46218721     0.12600
H591        H  0.29158585  0.14195008  0.07067824     0.12100
H592        H  0.27097139  0.10294747  0.06893755     0.12300
H593        H  0.29880440  0.18287916  0.04449043     0.15100
H594        H  0.31731131  0.17400846  0.47115198     0.13800
H595        H  0.24309440  0.07523325  0.48523081     0.11500
H596        H  0.24742540  0.07227825  0.06428691     0.13500
C597        C  0.85942093  0.31269132  0.99907932     0.19600
C598        C  0.87611787  0.31122688  0.02464936    -0.18500
C599        C  0.89686308  0.29629906  0.02260972    -0.10800
C600        C  0.90236958  0.28519545  0.49018376     0.21900
C601        C  0.88468475  0.28443669  0.46572594    -0.20100
C602        C  0.86331224  0.29845693  0.46784577    -0.10900
C603        C  0.92462659  0.26949890  0.48728006    -0.15100
C604        C  0.93806494  0.26206455  0.51269651    -0.29000
C605        C  0.83791823  0.32936312  0.00209393    -0.03200
C606        C  0.81575108  0.32503467  0.48210654    -0.39800
H607        H  0.87311809  0.32174398  0.04635148     0.13000
H608        H  0.90934471  0.29619950  0.04274317     0.12600
H609        H  0.88733598  0.27279316  0.44493564     0.12100
H610        H  0.85046024  0.29753519  0.44815262     0.12300
H611        H  0.92914729  0.26246235  0.46367090     0.15100
H612        H  0.93218361  0.26302817  0.04033918     0.13800
H613        H  0.83947008  0.34430627  0.01918020     0.11500
H614        H  0.81478675  0.30929733  0.46619561     0.13500
C615        C  0.07970407  0.28426958  0.99622965     0.19600
C616        C  0.09293356  0.29180919  0.47124286    -0.18500
C617        C  0.11446363  0.30520072  0.47260807    -0.10800
C618        C  0.12359304  0.31141670  0.99891099     0.21900
C619        C  0.10925036  0.30862372  0.02627676    -0.20100
C620        C  0.08763570  0.29526224  0.02505655    -0.10900
C621        C  0.14643182  0.32602913  0.00162311    -0.15100
C622        C  0.16420275  0.32598866  0.97945700    -0.29000
C623        C  0.05862902  0.26967316  0.49610798    -0.03200
C624        C  0.04555152  0.26105510  0.52072035    -0.39800
H625        H  0.08549030  0.28693355  0.44797077     0.13000
H626        H  0.12256993  0.31065243  0.45029967     0.12600
H627        H  0.11484587  0.31676976  0.04886173     0.12100
H628        H  0.07728183  0.29383630  0.04676342     0.12300
H629        H  0.14866407  0.33690936  0.02324979     0.15100
H630        H  0.16185933  0.31679736  0.46007320     0.13800
H631        H  0.05301557  0.26467674  0.47191826     0.11500
H632        H  0.05037925  0.26447754  0.04299629     0.13500
C633        C  0.07453114  0.12944234  0.03060021     0.19600
C634        C  0.08122897  0.11726867  0.50383125    -0.18500
C635        C  0.10430530  0.10186016  0.00644298    -0.10800
C636        C  0.11209753  0.09376402  0.03699953     0.21900
C637        C  0.10095092  0.10391026  0.06408791    -0.20100
C638        C  0.08244426  0.12142376  0.06093812    -0.10900
C639        C  0.13157459  0.07490786  0.04217978    -0.15100
C640        C  0.14199884  0.06385978  0.51733606    -0.29000
C641        C  0.05448071  0.14796031  0.02918552    -0.03200
C642        C  0.04437816  0.15962800  0.50376053    -0.39800
H643        H  0.07387305  0.12121271  0.48027493     0.13000
H644        H  0.10622273  0.09119998  0.48465882     0.12600
H645        H  0.10649872  0.09817765  0.08792528     0.12100
H646        H  0.07423869  0.12873729  0.08245617     0.12300
H647        H  0.13679710  0.07092081  0.06683276     0.15100
H648        H  0.13783817  0.06809895  0.49254416     0.13800
H649        H  0.04371970  0.15230392  0.55300187     0.11500
H650        H  0.05350751  0.15517828  0.97917761     0.13500
C651        C  0.69287140  0.87872503  0.51026063     0.19600
C652        C  0.68843017  0.90065230  0.49347113    -0.18500
C653        C  0.70457752  0.92034195  0.49614370    -0.10800
C654        C  0.72338934  0.91604886  0.01014633     0.21900
C655        C  0.72607702  0.89496590  0.02916960    -0.20100
C656        C  0.71088168  0.87483281  0.02471718    -0.10900
C657        C  0.74010034  0.93694186  0.01611811    -0.15100
C658        C  0.74732946  0.95574118  0.49818588    -0.29000
C659        C  0.67547037  0.85810052  0.50794336    -0.03200
C660        C  0.68299517  0.83449536  0.50922077    -0.39800
H661        H  0.67253659  0.90247392  0.47816430     0.13000
H662        H  0.70061362  0.93707451  0.48307908     0.12600
H663        H  0.74010178  0.89401326  0.04751556     0.12100
H664        H  0.71330627  0.85897616  0.04008222     0.12300
H665        H  0.74911947  0.93767404  0.03939406     0.15100
H666        H  0.73840413  0.95484328  0.47490353     0.13800
H667        H  0.65623069  0.86231273  0.50602745     0.11500
H668        H  0.70264389  0.82771359  0.00072558     0.13500
C669        C  0.69955344  0.14156552  0.51887471     0.19600
C670        C  0.71061602  0.13064724  0.03995532    -0.18500
C671        C  0.72274240  0.10799708  0.03737738    -0.10800
C672        C  0.72479218  0.09616793  0.51273983     0.21900
C673        C  0.71099448  0.10569948  0.48710616    -0.20100
C674        C  0.69852890  0.12807763  0.49004164    -0.10900
C675        C  0.73986673  0.07373551  0.50708706    -0.15100
C676        C  0.74698514  0.05808615  0.02684240    -0.29000
C677        C  0.68734746  0.16602162  0.01686489    -0.03200
C678        C  0.67029763  0.17594832  0.99715649    -0.39800
H679        H  0.71192547  0.14075443  0.06230318     0.13000
H680        H  0.73328267  0.10161565  0.05774642     0.12600
H681        H  0.71035848  0.09608224  0.46434606     0.12100
H682        H  0.68902065  0.13510767  0.46917034     0.12300
H683        H  0.74329838  0.06878244  0.48228479     0.15100
H684        H  0.74248244  0.06173655  0.05163565     0.13800
H685        H  0.69443587  0.17739730  0.03620455     0.11500
H686        H  0.66206181  0.16465412  0.97861827     0.13500
C687        C  0.91430957  0.12388639  0.01551523     0.19600
C688        C  0.90210980  0.11507936  0.04247512    -0.18500
C689        C  0.88411563  0.09718066  0.03936365    -0.10800
C690        C  0.87849600  0.09009037  0.50675552     0.21900
C691        C  0.88251572  0.10648637  0.48150069    -0.20100
C692        C  0.89951349  0.12526572  0.48459519    -0.10900
C693        C  0.85998097  0.07059447  0.50210669    -0.15100
C694        C  0.84879227  0.05527272  0.02733115    -0.29000
C695        C  0.93307878  0.14329134  0.02011104    -0.03200
C696        C  0.94156695  0.16003684  0.49358648    -0.39800
H697        H  0.90629338  0.12232487  0.06608423     0.13000
H698        H  0.87486198  0.09150022  0.06073525     0.12600
H699        H  0.87223121  0.10495105  0.45932542     0.12100
H700        H  0.90145928  0.13781316  0.46479330     0.12300
H701        H  0.85283301  0.06793462  0.47797480     0.15100
H702        H  0.85494450  0.05719590  0.05195190     0.12600
H703        H  0.93894115  0.14732579  0.04450159     0.11500
H704        H  0.93696340  0.15578834  0.46888132     0.13500
C705        C  0.86796925  0.71207094  0.99473624     0.19600
C706        C  0.87879831  0.72609800  0.52287707    -0.18500
C707        C  0.90120568  0.73744046  0.51891523    -0.10800
C708        C  0.91363074  0.73464963  0.98714140     0.21900
C709        C  0.90097271  0.72508797  0.96055828    -0.20100
C710        C  0.87843442  0.71385082  0.96424576    -0.10900
C711        C  0.93611179  0.74899787  0.98169281    -0.15100
C712        C  0.95105604  0.75754187  0.50551615    -0.29000
C713        C  0.84159990  0.70597478  0.50175276    -0.03200
C714        C  0.83074849  0.68965865  0.48197757    -0.39800
H715        H  0.87120416  0.72519365  0.54666372     0.13000
H716        H  0.90995970  0.74534509  0.53978550     0.12600
H717        H  0.90827905  0.72686556  0.93670430     0.12100
H718        H  0.86889266  0.70753314  0.94303276     0.12300
H719        H  0.93889377  0.75610812  0.95771734     0.15100
H720        H  0.94941300  0.74937240  0.52905408     0.13800
H721        H  0.83212213  0.71166659  0.52326790     0.11500
H722        H  0.84044986  0.68271877  0.46130990     0.13500
C723        C  0.09438265  0.73509915  0.98836720     0.19600
C724        C  0.10570949  0.72120271  0.01268193    -0.18500
C725        C  0.12785709  0.70909839  0.00742729    -0.10800
C726        C  0.13943340  0.71074029  0.97755489     0.21900
C727        C  0.12785430  0.72431064  0.95310973    -0.20100
C728        C  0.10570750  0.73636337  0.95836137    -0.10900
C729        C  0.16370785  0.69943451  0.97078446    -0.15100
C730        C  0.17693894  0.68578442  0.99169279    -0.29000
C731        C  0.07194212  0.74948224  0.99603390    -0.03200
C732        C  0.05659173  0.75895755  0.97379589    -0.39800
H733        H  0.09753453  0.71997621  0.03609243     0.13000
H734        H  0.13577847  0.69895520  0.02716350     0.12600
H735        H  0.13623737  0.72603725  0.92989026     0.12100
H736        H  0.09808406  0.74730773  0.93911110     0.12300
H737        H  0.17133705  0.70269788  0.94729552     0.15100
H738        H  0.16993549  0.68214510  0.01531510     0.13800
H739        H  0.06818353  0.75281074  0.02119075     0.11500
H740        H  0.05929203  0.75509712  0.94858506     0.13500
C741        C  0.91808122  0.88780652  0.50097692     0.19600
C742        C  0.90551981  0.89794321  0.47464880    -0.18500
C743        C  0.88710062  0.91540801  0.47893090    -0.10800
C744        C  0.88078069  0.92337921  0.50989451     0.21900
C745        C  0.89321542  0.91312134  0.53627464    -0.20100
C746        C  0.91162759  0.89558374  0.53198975    -0.10900
C747        C  0.86125332  0.94193538  0.51598337    -0.15100
C748        C  0.84861460  0.95357445  0.99346588    -0.29000
C749        C  0.93748218  0.86920412  0.49453776    -0.03200
C750        C  0.95152016  0.85829689  0.51708276    -0.39800
H751        H  0.90991592  0.89224992  0.45048836     0.13000
H752        H  0.87786294  0.92221744  0.45777791     0.12600
H753        H  0.88869314  0.91873946  0.56042103     0.12100
H754        H  0.92051676  0.88832267  0.55314396     0.12300
H755        H  0.85686330  0.94522690  0.04146555     0.15100
H756        H  0.85528648  0.95372393  0.46816523     0.13800
H757        H  0.94041343  0.86425165  0.46961766     0.11500
H758        H  0.94823483  0.86130598  0.04020048     0.13500
C759        C  0.12046748  0.92608838  0.50718300     0.19600
C760        C  0.10756560  0.91992075  0.47921914    -0.18500
C761        C  0.09005835  0.90149714  0.47954758    -0.10800
C762        C  0.08204216  0.89013177  0.00868914     0.21900
C763        C  0.09974310  0.89198989  0.03296584    -0.20100
C764        C  0.11685517  0.91075061  0.03257209    -0.10900
C765        C  0.06407198  0.86995148  0.01070569    -0.15100
C766        C  0.05067505  0.86175538  0.98576600    -0.29000
C767        C  0.13849148  0.94618646  0.50600391    -0.03200
C768        C  0.14474460  0.95950541  0.53192749    -0.39800
H769        H  0.11079301  0.92966212  0.45709549     0.13000
H770        H  0.08052425  0.89768421  0.45739985     0.12600
H771        H  0.10049146  0.87869607  0.05223338     0.12100
H772        H  0.13056824  0.91111763  0.05130085     0.12300
H773        H  0.06233369  0.86091370  0.03374993     0.15100
H774        H  0.05303579  0.87026947  0.46247002     0.13800
H775        H  0.14615688  0.95073830  0.48291904     0.11500
H776        H  0.13870803  0.95190578  0.05694997     0.13500
O777        O  0.03044084  0.83220718  0.51645265    -0.70900
O778        O  0.98452224  0.78096232  0.52433146    -0.71100
O779        O  0.03229225  0.78328635  0.51023045    -0.70900
O780        O  0.98307546  0.82998554  0.53058294    -0.71000
O781        O  0.97367939  0.83203177  0.97856442    -0.70900
O782        O  0.02298080  0.78474682  0.95996665    -0.70900
O783        O  0.97518474  0.78279123  0.97347290    -0.70900
O784        O  0.02122040  0.83399848  0.96515262    -0.71100
V785        V  0.00739532  0.80659690  0.51940552     1.35200
V786        V  0.99845986  0.80826924  0.97026276     1.35200
C787        C  0.03395129  0.84230701  0.48966108     0.78400
C788        C  0.97160744  0.77287938  0.00038155     0.78400
C789        C  0.03627522  0.77721075  0.48146434     0.78300
C790        C  0.96959383  0.83854124  0.00715946     0.78300
O791        O  0.82085536  0.98504778  0.97763030    -0.70900
O792        O  0.77269431  0.03410596  0.99261757    -0.71100
O793        O  0.82143474  0.03319598  0.99278884    -0.70900
O794        O  0.77210428  0.98587674  0.97766199    -0.71000
O795        O  0.77539945  0.97820144  0.53077360    -0.70900
O796        O  0.82445705  0.02580311  0.54344455    -0.70900
O797        O  0.77589824  0.02649478  0.54562378    -0.70900
O798        O  0.82403151  0.97774817  0.52856826    -0.71100
V799        V  0.79676860  0.00936329  0.98617476     1.35200
V800        V  0.79986805  0.00221776  0.53610859     1.35200
C801        C  0.83126249  0.97400017  0.50029120     0.78400
C802        C  0.76723402  0.03967220  0.52328116     0.78400
C803        C  0.83208940  0.03833853  0.52029400     0.78300
C804        C  0.76603269  0.97465483  0.50335985     0.78300
O805        O  0.96925440  0.18688562  0.97713343    -0.70900
O806        O  0.01612737  0.23721581  0.98716420    -0.71100
O807        O  0.01804149  0.18822941  0.97934024    -0.70900
O808        O  0.96682946  0.23578799  0.98540227    -0.71000
O809        O  0.96668575  0.23417345  0.53531643    -0.70900
O810        O  0.01537161  0.18455615  0.53140315    -0.70900
O811        O  0.01556214  0.23348992  0.53939071    -0.70900
O812        O  0.96679567  0.18522681  0.52706176    -0.71100
V813        V  0.99253221  0.21200346  0.98324965     1.35200
V814        V  0.99113080  0.20951868  0.53227473     1.35200
C815        C  0.96077474  0.17587728  0.00108105     0.78400
C816        C  0.02452018  0.24271288  0.01458064     0.78400
C817        C  0.02612130  0.17760764  0.00426832     0.78300
C818        C  0.95786329  0.24112712  0.01240831     0.78300
O819        O  0.16824197  0.03934006  0.55115467    -0.70900
O820        O  0.21672905  0.98966789  0.56344628    -0.71100
O821        O  0.21674531  0.03914992  0.55833368    -0.70900
O822        O  0.16846828  0.99016180  0.55677200    -0.71000
O823        O  0.17350161  0.98428129  0.00810975    -0.70900
O824        O  0.22071603  0.03530328  0.01122185    -0.70900
O825        O  0.22192803  0.98556247  0.01687700    -0.70900
O826        O  0.17252858  0.03346967  0.00215794    -0.71100
V827        V  0.19268111  0.01456066  0.55641292     1.35200
V828        V  0.19714396  0.00970036  0.01057429     1.35200
C829        C  0.16178384  0.04372368  0.02523278     0.78400
C830        C  0.22733497  0.97862773  0.04500829     0.78400
C831        C  0.22595249  0.04565332  0.03763236     0.78300
C832        C  0.16285427  0.97776601  0.03340556     0.78300
C833        C  0.20327934  0.67867951  0.48211320    -0.01600
C834        C  0.33010713  0.81702904  0.01022845    -0.01600
N835        N  0.49290636  0.80402892  0.70842817    -0.35700
N836        N  0.45787691  0.80676775  0.76079593    -0.56300
N837        N  0.49733983  0.80116087  0.80671824    -0.35700
N838        N  0.53235667  0.80310245  0.75455028    -0.56300
C839        C  0.47319099  0.81327769  0.69281244     0.27900
C840        C  0.51228854  0.80764530  0.68940678     0.27900
C841        C  0.47836549  0.80473165  0.82652450     0.27900
C842        C  0.51775677  0.80700934  0.82334254     0.27900
C843        C  0.44253474  0.80626831  0.73526646     0.36500
C844        C  0.44466813  0.80085661  0.78680806     0.36500
C845        C  0.54501998  0.79695516  0.72810120     0.36500
C846        C  0.54742436  0.79934479  0.77981638     0.36500
C847        C  0.48031791  0.82301259  0.66369278    -0.21000
C848        C  0.50485719  0.81907646  0.66134353    -0.21000
C849        C  0.48679923  0.81256533  0.85621800    -0.21000
C850        C  0.51158891  0.81435222  0.85408180    -0.21000
C851        C  0.41943133  0.80033115  0.74513610    -0.22000
C852        C  0.42084375  0.79656246  0.77765844    -0.22000
C853        C  0.56809205  0.78889755  0.73672191    -0.22000
C854        C  0.56975423  0.79087461  0.76944733    -0.22000
C855        C  0.44882169  0.81197610  0.70334463    -0.17400
C856        C  0.53648467  0.80054066  0.69636644    -0.17400
C857        C  0.54182300  0.80465095  0.81200074    -0.17400
C858        C  0.45367165  0.80065092  0.81881352    -0.17400
H859        H  0.46909937  0.83207787  0.64581117     0.15500
H860        H  0.51605796  0.82452460  0.64151218     0.15500
H861        H  0.47614001  0.81697627  0.87710748     0.15500
H862        H  0.52364440  0.82020279  0.87319134     0.15500
H863        H  0.40328481  0.79856870  0.73036993     0.13800
H864        H  0.40591414  0.79142987  0.79272179     0.13800
H865        H  0.58242768  0.78257342  0.72120628     0.13800
H866        H  0.58551429  0.78633909  0.78401746     0.13800
H867        H  0.49284413  0.79359337  0.72925411     0.27100
H868        H  0.49648586  0.79289408  0.78427366     0.27100
C869        C  0.66646081  0.80923000  0.00498134    -0.01600
C870        C  0.80646333  0.67714075  0.98551878    -0.01600
C871        C  0.32676209  0.20920568  0.49664746    -0.01600
C872        C  0.18725532  0.34349455  0.48292254    -0.01600
N873        N  0.22237898  0.50535088  0.68479486    -0.35700
N874        N  0.22693682  0.54642443  0.72920402    -0.56300
N875        N  0.22957693  0.51100613  0.78211073    -0.35700
N876        N  0.22817582  0.47032053  0.73732408    -0.56300
C877        C  0.22490276  0.52433951  0.66419756     0.27900
C878        C  0.22693039  0.48439750  0.66820565     0.27900
C879        C  0.23557815  0.53214937  0.79731201     0.27900
C880        C  0.23642216  0.49214820  0.80147612     0.27900
C881        C  0.21973917  0.55893299  0.70266970     0.36500
C882        C  0.22388050  0.56186965  0.75434906     0.36500
C883        C  0.22432238  0.45425891  0.71305669     0.36500
C884        C  0.22687936  0.45732127  0.76484480     0.36500
C885        C  0.23107668  0.51535830  0.63424323    -0.21000
C886        C  0.23253241  0.49022816  0.63681111    -0.21000
C887        C  0.24659009  0.52663852  0.82650154    -0.21000
C888        C  0.24692734  0.50146086  0.82924956    -0.21000
C889        C  0.21229000  0.58246055  0.71100449    -0.22000
C890        C  0.21503297  0.58436025  0.74368542    -0.22000
C891        C  0.22087505  0.43088005  0.72517890    -0.22000
C892        C  0.22259330  0.43278776  0.75792042    -0.22000
C893        C  0.22028677  0.54943746  0.67102478    -0.17400
C894        C  0.22505912  0.46007908  0.68007387    -0.17400
C895        C  0.23170157  0.46694087  0.79583131    -0.17400
C896        C  0.22966413  0.55624263  0.78667079    -0.17400
H897        H  0.23421601  0.52584712  0.61271341     0.15500
H898        H  0.23708363  0.47769586  0.61757535     0.15500
H899        H  0.25336421  0.53942972  0.84429572     0.15500
H900        H  0.25392090  0.49125773  0.84960701     0.15500
H901        H  0.20538336  0.59674978  0.69532604     0.13800
H902        H  0.21071596  0.60040141  0.75798372     0.13800
H903        H  0.21774039  0.41409657  0.71184683     0.13800
H904        H  0.22140763  0.41763522  0.77451675     0.13800
H905        H  0.21520342  0.50647946  0.70763309     0.27100
H906        H  0.21865230  0.50970478  0.76176047     0.27100
N907        N  0.48922227  0.21658173  0.70093279    -0.35700
N908        N  0.53031554  0.22055021  0.74506706    -0.56300
N909        N  0.49666237  0.21704964  0.79844112    -0.35700
N910        N  0.45546601  0.21735005  0.75438976    -0.56300
C911        C  0.50743212  0.22200052  0.68073508     0.27900
C912        C  0.46807396  0.22191937  0.68553080     0.27900
C913        C  0.51721355  0.22417924  0.81379791     0.27900
C914        C  0.47797854  0.22127690  0.81855102     0.27900
C915        C  0.54219246  0.21465621  0.71783301     0.36500
C916        C  0.54603599  0.21625231  0.76959759     0.36500
C917        C  0.44014051  0.21202367  0.72987273     0.36500
C918        C  0.44410952  0.21077144  0.78159512     0.36500
C919        C  0.49779383  0.23095412  0.65222138    -0.21000
C920        C  0.47298960  0.23119037  0.65537221    -0.21000
C921        C  0.51138455  0.23352626  0.84374009    -0.21000
C922        C  0.48668962  0.23141257  0.84687461    -0.21000
C923        C  0.56549056  0.20655508  0.72520681    -0.22000
C924        C  0.56800154  0.20784823  0.75791266    -0.22000
C925        C  0.41892869  0.20218179  0.74151030    -0.22000
C926        C  0.42155414  0.20109358  0.77423153    -0.22000
C927        C  0.53237191  0.21730539  0.68647911    -0.17400
C928        C  0.44457697  0.21694306  0.69724506    -0.17400
C929        C  0.45358335  0.21453358  0.81290165    -0.17400
C930        C  0.54111933  0.22055306  0.80233788    -0.17400
H931        H  0.50763625  0.23666936  0.63127629     0.15500
H932        H  0.46009481  0.23719186  0.63724211     0.15500
H933        H  0.52364484  0.24078676  0.86175356     0.15500
H934        H  0.47631942  0.23665933  0.86770233     0.15500
H935        H  0.57928205  0.20009665  0.70895290     0.13800
H936        H  0.58404711  0.20270943  0.77155604     0.13800
H937        H  0.40331476  0.19610035  0.72781030     0.13800
H938        H  0.40831085  0.19390475  0.79054551     0.13800
H939        H  0.49108343  0.20698803  0.72234287     0.27100
H940        H  0.49577852  0.20699232  0.77723387     0.27100
C941        C  0.66218444  0.20215773  0.50342499    -0.01600
C942        C  0.79449359  0.34301178  0.98678306    -0.01600
N943        N  0.79929702  0.50817445  0.68419415    -0.35700
N944        N  0.80310971  0.47372316  0.73758205    -0.56300
N945        N  0.80301682  0.51460477  0.78289200    -0.35700
N946        N  0.80241921  0.54913135  0.72951321    -0.56300
C947        C  0.80406399  0.48704733  0.66809493     0.27900
C948        C  0.80367536  0.52701980  0.66398419     0.27900
C949        C  0.80953655  0.49590711  0.80269114     0.27900
C950        C  0.80767870  0.53591327  0.79859851     0.27900
C951        C  0.80014538  0.45740990  0.71333573     0.36500
C952        C  0.80235581  0.46071424  0.76517131     0.36500
C953        C  0.79833788  0.56191249  0.70220987     0.36500
C954        C  0.79952853  0.56529053  0.75387797     0.36500
C955        C  0.81133242  0.49261230  0.63724403    -0.21000
C956        C  0.81094588  0.51777783  0.63461126    -0.21000
C957        C  0.81795893  0.50554516  0.83153070    -0.21000
C958        C  0.81687109  0.53069780  0.82889835    -0.21000
C959        C  0.79743820  0.43396750  0.72559090    -0.22000
C960        C  0.79907936  0.43600387  0.75826631    -0.22000
C961        C  0.79293623  0.58624446  0.70926558    -0.22000
C962        C  0.79371833  0.58839306  0.74196819    -0.22000
C963        C  0.80181772  0.46285651  0.68027655    -0.17400
C964        C  0.80076674  0.55233579  0.67090047    -0.17400
C965        C  0.80342057  0.55996936  0.78664859    -0.17400
C966        C  0.80706396  0.47041703  0.79619239    -0.17400
H967        H  0.81668201  0.47991995  0.61856182     0.15500
H968        H  0.81579506  0.52810541  0.61354418     0.15500
H969        H  0.82422157  0.49556990  0.85247401     0.15500
H970        H  0.82238794  0.54364025  0.84725440     0.15500
H971        H  0.79516119  0.41698209  0.71238485     0.13800
H972        H  0.79854488  0.42076101  0.77477280     0.13800
H973        H  0.78897408  0.60098713  0.69261043     0.13800
H974        H  0.79050329  0.60512506  0.75541254     0.13800
H975        H  0.79138786  0.50959816  0.70658151     0.27100
H976        H  0.79379609  0.51299849  0.76118680     0.27100
C977        C  0.79048607  0.41814802  0.60900970     0.19600
C978        C  0.78052610  0.42111751  0.57817694    -0.18500
C979        C  0.78179211  0.40211980  0.55560143    -0.10800
C980        C  0.79316166  0.37957210  0.56333499     0.21900
C981        C  0.80229606  0.37625801  0.59454464    -0.20100
C982        C  0.80103851  0.39529197  0.61715869    -0.10900
C983        C  0.79480437  0.35889484  0.53989971    -0.15100
C984        C  0.79424348  0.36237310  0.50792583    -0.29000
C985        C  0.78902627  0.43913089  0.63196016    -0.03200
C986        C  0.80370603  0.44158064  0.65774243    -0.39800
H987        H  0.77182401  0.43829604  0.57143347     0.13000
H988        H  0.77343584  0.40512727  0.53236622     0.12600
H989        H  0.81057670  0.35890464  0.60141055     0.12100
H990        H  0.80806125  0.39180603  0.64101133     0.12300
H991        H  0.79651237  0.34028542  0.54907534     0.15100
H992        H  0.79366439  0.38111126  0.49907891     0.13800
H993        H  0.77589211  0.45365657  0.62687431     0.11500
H994        H  0.81712515  0.42753507  0.66338927     0.13500
C995        C  0.79909522  0.41993603  0.86128330     0.19600
C996        C  0.77929377  0.40614151  0.87172864    -0.18500
C997        C  0.78174401  0.38957327  0.89722578    -0.10800
C998        C  0.80425357  0.38626909  0.91294138     0.21900
C999        C  0.82414420  0.39972487  0.90212700    -0.20100
C1000       C  0.82170654  0.41625913  0.87664398    -0.10900
C1001       C  0.80767546  0.37050620  0.94191348    -0.15100
C1002       C  0.79089872  0.35526391  0.95406595    -0.29000
C1003       C  0.79515473  0.43775525  0.83445227    -0.03200
C1004       C  0.81215187  0.45297251  0.82306001    -0.39800
H1005       H  0.76166995  0.40843630  0.86037452     0.13000
H1006       H  0.76576571  0.37998222  0.90479567     0.12600
H1007       H  0.84170419  0.39766080  0.91373599     0.12100
H1008       H  0.83766673  0.42603369  0.86946146     0.12300
H1009       H  0.82466482  0.37242713  0.95509994     0.15100
H1010       H  0.77396271  0.35236903  0.94126366     0.13800
H1011       H  0.77722179  0.43850608  0.82340889     0.11500
H1012       H  0.82998022  0.45382109  0.83403597     0.13500
C1013       C  0.74230575  0.29121311  0.47794369     0.19600
C1014       C  0.74087280  0.26816197  0.46285246    -0.18500
C1015       C  0.72135843  0.25256548  0.46844449    -0.10800
C1016       C  0.70266774  0.25977007  0.48919779     0.21900
C1017       C  0.70361199  0.28314508  0.50340614    -0.20100
C1018       C  0.72321907  0.29869845  0.49799383    -0.10900
C1019       C  0.68173183  0.24359663  0.49587593    -0.15100
C1020       C  0.68354247  0.21887302  0.49623894    -0.29000
C1021       C  0.76529192  0.30831575  0.97520470    -0.03200
C1022       C  0.77232285  0.32723577  0.99412645    -0.39800
H1023       H  0.75849369  0.26262180  0.95242892     0.13000
H1024       H  0.72080857  0.23505051  0.45612569     0.12600
H1025       H  0.68922060  0.28930455  0.51902043     0.12100
H1026       H  0.72303885  0.31663231  0.50918636     0.12300
H1027       H  0.66459554  0.25221884  0.50219384     0.15100
H1028       H  0.70100878  0.21034726  0.49144215     0.13800
H1029       H  0.77598445  0.30398588  0.95420922     0.11500
H1030       H  0.76207112  0.33132466  0.01556036     0.13500
C1031       C  0.62291143  0.20805205  0.92102355     0.19600
C1032       C  0.62727399  0.21143243  0.88821749    -0.18500
C1033       C  0.60801559  0.21271979  0.86598436    -0.10800
C1034       C  0.58389674  0.21040852  0.87613147     0.21900
C1035       C  0.57956348  0.20686251  0.90882026    -0.20100
C1036       C  0.59872390  0.20573073  0.93100375    -0.10900
C1037       C  0.56287330  0.21007669  0.85341006    -0.15100
C1038       C  0.56235905  0.22175638  0.82498103    -0.29000
C1039       C  0.64387059  0.20526938  0.94382578    -0.03200
C1040       C  0.64190627  0.20859365  0.97575439    -0.39800
H1041       H  0.64567741  0.21282687  0.87971176     0.13000
H1042       H  0.61214714  0.21474218  0.84085991     0.12600
H1043       H  0.56120981  0.20468380  0.91723278     0.12100
H1044       H  0.59439060  0.20214970  0.95573138     0.12300
H1045       H  0.54689294  0.20014376  0.86078507     0.15100
H1046       H  0.57824288  0.23159321  0.81716587     0.13800
H1047       H  0.66133494  0.19982621  0.93421280     0.11500
H1048       H  0.62484386  0.21546676  0.98502785     0.13500
C1049       C  0.61768078  0.20320670  0.57602878     0.19600
C1050       C  0.60002043  0.18676407  0.58649424    -0.18500
C1051       C  0.58453860  0.19295853  0.61155868    -0.10800
C1052       C  0.58611006  0.21600110  0.62676549     0.21900
C1053       C  0.60414380  0.23231512  0.61690524    -0.20100
C1054       C  0.61967895  0.22612012  0.59164712    -0.10900
C1055       C  0.56995002  0.22283729  0.65386505    -0.15100
C1056       C  0.54789708  0.21285747  0.65785634    -0.29000
C1057       C  0.63201941  0.19618817  0.54727932    -0.03200
C1058       C  0.65154617  0.20820230  0.53630523    -0.39800
H1059       H  0.59805418  0.16898779  0.57504287     0.13000
H1060       H  0.57157777  0.17944569  0.61917131     0.12600
H1061       H  0.60594743  0.25007800  0.62842905     0.12100
H1062       H  0.63271107  0.23956230  0.58410079     0.12300
H1063       H  0.57638971  0.23634642  0.67111811     0.15100
H1064       H  0.54029839  0.20134369  0.63905867     0.13800
H1065       H  0.62538295  0.18074518  0.53321296     0.11500
H1066       H  0.65930851  0.22310005  0.55022797     0.13500
C1067       C  0.20776081  0.38856769  0.91482878     0.19600
C1068       C  0.22901379  0.40214491  0.91029198    -0.18500
C1069       C  0.23134932  0.41790374  0.88400531    -0.10800
C1070       C  0.21236015  0.42048791  0.86139662     0.21900
C1071       C  0.19120797  0.40678837  0.86581139    -0.20100
C1072       C  0.18886950  0.39105215  0.89205677    -0.10900
C1073       C  0.21324967  0.43752071  0.83339105    -0.15100
C1074       C  0.23297961  0.44981629  0.82375567    -0.29000
C1075       C  0.20615597  0.37259407  0.94386218    -0.03200
C1076       C  0.18759520  0.35739729  0.95057038    -0.39800
H1077       H  0.24389181  0.40071929  0.92736890     0.13000
H1078       H  0.24790971  0.42817545  0.88200456     0.12600
H1079       H  0.17623962  0.40837431  0.84889641     0.12100
H1080       H  0.17206496  0.38125663  0.89428929     0.12300
H1081       H  0.19658538  0.44005393  0.81958205     0.15100
H1082       H  0.25000531  0.44837612  0.83678903     0.13800
H1083       H  0.22126525  0.37318991  0.96078695     0.11500
H1084       H  0.17231532  0.35609698  0.93413952     0.13500
C1085       C  0.20786278  0.41769565  0.60892859     0.19600
C1086       C  0.18574579  0.41174000  0.59414143    -0.18500
C1087       C  0.18463988  0.39370725  0.57024828    -0.10800
C1088       C  0.20587706  0.38161353  0.55992007     0.21900
C1089       C  0.22798083  0.38744343  0.57502189    -0.20100
C1090       C  0.22902177  0.40529754  0.59920961    -0.10900
C1091       C  0.20587673  0.36303353  0.53353236    -0.15100
C1092       C  0.18755567  0.36070851  0.51205493    -0.29000
C1093       C  0.20834233  0.43774634  0.63314724    -0.03200
C1094       C  0.22509909  0.43929256  0.65671840    -0.39800
H1095       H  0.16918895  0.42099610  0.60126186     0.13000
H1096       H  0.16704122  0.38935239  0.56029339     0.12600
H1097       H  0.24461764  0.37845782  0.56767340     0.12100
H1098       H  0.24649233  0.40980988  0.60955909     0.12300
H1099       H  0.22219333  0.35202757  0.53074836     0.15100
H1100       H  0.17208375  0.37305884  0.51350839     0.13800
H1101       H  0.19403574  0.45160104  0.63200355     0.11500
H1102       H  0.23828368  0.42459048  0.66020509     0.13500
C1103       C  0.23362960  0.28777412  0.99821095     0.19600
C1104       C  0.24605285  0.27974385  0.52421438    -0.18500
C1105       C  0.26443777  0.26203896  0.52032136    -0.10800
C1106       C  0.27079130  0.25171766  0.99269143     0.21900
C1107       C  0.25902674  0.26116744  0.96533087    -0.20100
C1108       C  0.24078465  0.27903477  0.96797302    -0.10900
C1109       C  0.28934612  0.23197449  0.98837895    -0.15100
C1110       C  0.30810414  0.22933745  0.50408899    -0.29000
C1111       C  0.21416585  0.30822952  0.50209613    -0.03200
C1112       C  0.20911113  0.32609656  0.48068054    -0.39800
H1113       H  0.24093808  0.28524910  0.54818413     0.13000
H1114       H  0.27279885  0.25405293  0.54147374     0.12600
H1115       H  0.26391918  0.25460217  0.94171808     0.12100
H1116       H  0.23185974  0.28544290  0.94629682     0.12300
H1117       H  0.28823690  0.22121705  0.96642283     0.15100
H1118       H  0.31029516  0.24011871  0.52584099     0.13800
H1119       H  0.20340281  0.30702015  0.52366103     0.11500
H1120       H  0.22110081  0.32495732  0.95922807     0.13500
C1121       C  0.36303913  0.20575731  0.57826026     0.19600
C1122       C  0.35940046  0.21530239  0.60910456    -0.18500
C1123       C  0.37831914  0.21547401  0.63179886    -0.10800
C1124       C  0.40136834  0.20585555  0.62413348     0.21900
C1125       C  0.40471486  0.19570917  0.59350555    -0.20100
C1126       C  0.38584338  0.19559521  0.57086363    -0.10900
C1127       C  0.42233875  0.20555149  0.64709087    -0.15100
C1128       C  0.42312149  0.21795015  0.67508658    -0.29000
C1129       C  0.34272264  0.20627494  0.55444981    -0.03200
C1130       C  0.34657296  0.20832214  0.52273543    -0.39800
H1131       H  0.34191285  0.22291521  0.61555666     0.13000
H1132       H  0.37454060  0.22295037  0.65522270     0.12600
H1133       H  0.42208205  0.18784384  0.58698425     0.12100
H1134       H  0.38912136  0.18722987  0.54774161     0.12300
H1135       H  0.43821394  0.19483130  0.64037055     0.15100
H1136       H  0.40752797  0.22836755  0.68316751     0.13800
H1137       H  0.32438461  0.20663248  0.56343376     0.11500
H1138       H  0.36520310  0.21049014  0.51518362     0.13500
C1139       C  0.40041326  0.21374073  0.87353789     0.19600
C1140       C  0.38165639  0.23011524  0.88174362    -0.18500
C1141       C  0.36700054  0.22567539  0.90831198    -0.10800
C1142       C  0.37065165  0.20447526  0.92717031     0.21900
C1143       C  0.38900201  0.18780637  0.91831605    -0.20100
C1144       C  0.40364549  0.19228648  0.89187598    -0.10900
C1145       C  0.35648740  0.19898443  0.95657290    -0.15100
C1146       C  0.33900579  0.21351784  0.96925602    -0.29000
C1147       C  0.41570554  0.21907992  0.84517966    -0.03200
C1148       C  0.43829972  0.20989823  0.84159350    -0.39800
H1149       H  0.37851804  0.24660091  0.86775892     0.13000
H1150       H  0.35306199  0.23902945  0.91379311     0.12600
H1151       H  0.39214692  0.17119455  0.93205123     0.12100
H1152       H  0.41724823  0.17869959  0.88570577     0.12300
H1153       H  0.36137237  0.18229208  0.96946464     0.15100
H1154       H  0.33367414  0.23033805  0.95716991     0.13800
H1155       H  0.40839254  0.23143246  0.82700620     0.11500
H1156       H  0.44672797  0.19963792  0.86106411     0.13500
C1157       C  0.79564251  0.64200872  0.90449041     0.19600
C1158       C  0.80337700  0.64591254  0.87299505    -0.18500
C1159       C  0.80155188  0.62730120  0.84988053    -0.10800
C1160       C  0.79192149  0.60426107  0.85785412     0.21900
C1161       C  0.78299162  0.60083294  0.88881571    -0.20100
C1162       C  0.78474926  0.61943082  0.91187443    -0.10900
C1163       C  0.79072149  0.58339390  0.83477768    -0.15100
C1164       C  0.80504151  0.58127731  0.80903898    -0.29000
C1165       C  0.79966500  0.66168692  0.92888029    -0.03200
C1166       C  0.79996482  0.65751905  0.96072585    -0.39800
H1167       H  0.81132651  0.66327936  0.86638665     0.13000
H1168       H  0.80768130  0.63113533  0.82591702     0.12600
H1169       H  0.77497027  0.58349268  0.89539571     0.12100
H1170       H  0.77747510  0.61587666  0.93530802     0.12300
H1171       H  0.77828502  0.56855970  0.83986222     0.15100
H1172       H  0.81776374  0.59561186  0.80322994     0.13800
H1173       H  0.80416679  0.67994505  0.92044182     0.11500
H1174       H  0.79627374  0.63921359  0.96947390     0.13500
C1175       C  0.81825353  0.60362386  0.61241543     0.19600
C1176       C  0.79684242  0.61491381  0.60098912    -0.18500
C1177       C  0.79740388  0.63075541  0.57465746    -0.10800
C1178       C  0.81937760  0.63536011  0.55913683     0.21900
C1179       C  0.84076106  0.62434329  0.57093102    -0.20100
C1180       C  0.84026775  0.60895019  0.59767010    -0.10900
C1181       C  0.82029072  0.64955469  0.52893645    -0.15100
C1182       C  0.80484938  0.66805444  0.52133673    -0.29000
C1183       C  0.81806642  0.58638150  0.63978320    -0.03200
C1184       C  0.80043874  0.56979224  0.64355223    -0.39800
H1185       H  0.77968124  0.61144398  0.61236964     0.13000
H1186       H  0.78053433  0.63859134  0.56579408     0.12600
H1187       H  0.85786743  0.62749825  0.55922114     0.12100
H1188       H  0.85699144  0.60056999  0.60624752     0.12300
H1189       H  0.83423531  0.64442061  0.51192395     0.15100
H1190       H  0.79175962  0.67434825  0.53885772     0.13800
H1191       H  0.83338936  0.58639901  0.65638917     0.11500
H1192       H  0.78624006  0.56793283  0.62548815     0.13500
C1193       C  0.74620914  0.72085943  0.49092670     0.19600
C1194       C  0.72468461  0.71996255  0.50851562    -0.18500
C1195       C  0.70834020  0.73984852  0.50838761    -0.10800
C1196       C  0.71388571  0.75748263  0.98331415     0.21900
C1197       C  0.73446706  0.75733474  0.96380134    -0.20100
C1198       C  0.75062928  0.74180841  0.47224998    -0.10900
C1199       C  0.69703774  0.77905049  0.98171021    -0.15100
C1200       C  0.68160194  0.78543858  0.00527032    -0.29000
C1201       C  0.76337880  0.69953852  0.49202673    -0.03200
C1202       C  0.78875346  0.69880253  0.98258406    -0.39800
H1203       H  0.72060356  0.70389130  0.52264917     0.13000
H1204       H  0.69188560  0.73834671  0.52203440     0.12600
H1205       H  0.73778832  0.77252540  0.94776703     0.12100
H1206       H  0.76662466  0.73826363  0.94928777     0.12300
H1207       H  0.69895733  0.79131848  0.96150631     0.15100
H1208       H  0.68006562  0.77700253  0.53378926     0.13800
H1209       H  0.75635703  0.68170713  0.49872329     0.11500
H1210       H  0.79599428  0.71674416  0.97688826     0.13500
C1211       C  0.59144147  0.80484179  0.63893200     0.19600
C1212       C  0.61016472  0.82180167  0.63467908    -0.18500
C1213       C  0.62567918  0.81995827  0.60839666    -0.10800
C1214       C  0.62282636  0.80091552  0.58572587     0.21900
C1215       C  0.60468533  0.78346488  0.59074491    -0.20100
C1216       C  0.58924971  0.78529392  0.61697115    -0.10900
C1217       C  0.63763550  0.79852794  0.55615393    -0.15100
C1218       C  0.65356762  0.81530109  0.54560382    -0.29000
C1219       C  0.57495596  0.80783359  0.66678913    -0.03200
C1220       C  0.55308749  0.79708928  0.66864941    -0.39800
H1221       H  0.61260131  0.83677233  0.65154654     0.13000
H1222       H  0.63965107  0.83357935  0.60613346     0.12600
H1223       H  0.60223229  0.76838513  0.57404460     0.12100
H1224       H  0.57580300  0.77119224  0.61991545     0.12300
H1225       H  0.63435231  0.78252929  0.54110202     0.15100
H1226       H  0.65725550  0.83152518  0.55990267     0.13800
H1227       H  0.58064788  0.82001741  0.68608057     0.11500
H1228       H  0.54593912  0.78693629  0.64830099     0.13500
C1229       C  0.62806260  0.80421575  0.92541650     0.19600
C1230       C  0.62899179  0.81423183  0.89454569    -0.18500
C1231       C  0.60936699  0.81182450  0.87317994    -0.10800
C1232       C  0.58834451  0.79914531  0.88226480     0.21900
C1233       C  0.58781381  0.78849341  0.91280767    -0.20100
C1234       C  0.60737921  0.79092938  0.93410918    -0.10900
C1235       C  0.56690789  0.79588872  0.86060127    -0.15100
C1236       C  0.56274297  0.80925203  0.83401734    -0.29000
C1237       C  0.64905088  0.80718061  0.94785619    -0.03200
C1238       C  0.64608214  0.80813140  0.97980983    -0.39800
H1239       H  0.64488413  0.82411960  0.88702298     0.13000
H1240       H  0.61106805  0.81962711  0.84955830     0.12600
H1241       H  0.57213795  0.77823358  0.92028901     0.12100
H1242       H  0.60636078  0.78203737  0.95720497     0.12300
H1243       H  0.55373581  0.78204743  0.86697061     0.15100
H1244       H  0.57551735  0.82304441  0.82656961     0.13800
H1245       H  0.66691254  0.80948133  0.93785422     0.11500
H1246       H  0.62760461  0.80840108  0.98851866     0.13500
C1247       C  0.40175814  0.80668708  0.88089844     0.19600
C1248       C  0.38779282  0.82678859  0.89118202    -0.18500
C1249       C  0.37371523  0.82534792  0.91877684    -0.10800
C1250       C  0.37285985  0.80344199  0.93678730     0.21900
C1251       C  0.38638849  0.78308786  0.92593041    -0.20100
C1252       C  0.40063353  0.78462020  0.89835840    -0.10900
C1253       C  0.35875290  0.80113894  0.96719150    -0.15100
C1254       C  0.34384759  0.81881726  0.97869182    -0.29000
C1255       C  0.41708771  0.80958341  0.85189938    -0.03200
C1256       C  0.43708661  0.79594665  0.84621438    -0.39800
H1257       H  0.38816689  0.84396440  0.87814233     0.13000
H1258       H  0.36401211  0.84175700  0.92574897     0.12600
H1259       H  0.38604970  0.76590503  0.93894707     0.12100
H1260       H  0.41055193  0.76843903  0.89073267     0.12300
H1261       H  0.36080712  0.78427733  0.98088308     0.15100
H1262       H  0.34120244  0.83555298  0.96511650     0.13800
H1263       H  0.41270098  0.82459010  0.83564574     0.11500
H1264       H  0.44317356  0.78258082  0.86386292     0.13500
C1265       C  0.40887788  0.81511001  0.62567926     0.19600
C1266       C  0.41196541  0.80553072  0.59468692    -0.18500
C1267       C  0.39568851  0.81139507  0.56990696    -0.10800
C1268       C  0.37564165  0.82689569  0.57553199     0.21900
C1269       C  0.37275702  0.83697211  0.60626641    -0.20100
C1270       C  0.38905596  0.83106152  0.63117417    -0.10900
C1271       C  0.35758576  0.83280321  0.54978424    -0.15100
C1272       C  0.35186880  0.81645723  0.52654882    -0.29000
C1273       C  0.42711462  0.80816235  0.65087070    -0.03200
C1274       C  0.42863533  0.81819040  0.68041619    -0.39800
H1275       H  0.42719429  0.79351817  0.58950036     0.13000
H1276       H  0.39905731  0.80396685  0.54627640     0.12600
H1277       H  0.35756777  0.84910561  0.61117128     0.12100
H1278       H  0.38578911  0.83894445  0.65451318     0.12300
H1279       H  0.34830455  0.85040741  0.55106408     0.15100
H1280       H  0.36092627  0.79866141  0.52710198     0.13800
H1281       H  0.44077902  0.79459381  0.64430449     0.11500
H1282       H  0.41496659  0.83105320  0.68865648     0.13500
C1283       C  0.24232219  0.73396257  0.99487344     0.19600
C1284       C  0.25101546  0.74606085  0.02239501    -0.18500
C1285       C  0.26821925  0.76465420  0.02013618    -0.10800
C1286       C  0.27713597  0.77176006  0.99014860     0.21900
C1287       C  0.26786047  0.76035255  0.96246721    -0.20100
C1288       C  0.25074906  0.74152874  0.96472791    -0.10900
C1289       C  0.29533816  0.79167548  0.98735332    -0.15100
C1290       C  0.31282852  0.79515200  0.00973243    -0.29000
C1291       C  0.22440652  0.71387433  0.99905722    -0.03200
C1292       C  0.22103405  0.69923242  0.47409801    -0.39800
H1293       H  0.24460026  0.74096872  0.04587503     0.13000
H1294       H  0.27424709  0.77369372  0.04191073     0.12600
H1295       H  0.27407391  0.76584536  0.93905273     0.12100
H1296       H  0.24404612  0.73329473  0.94280243     0.12300
H1297       H  0.29445035  0.80357202  0.96651453     0.15100
H1298       H  0.31415282  0.78187487  0.02907169     0.13800
H1299       H  0.21589153  0.71241111  0.02232834     0.11500
H1300       H  0.22934189  0.69921718  0.45067203     0.13500
C1301       C  0.21896870  0.60191582  0.60762874     0.19600
C1302       C  0.23643404  0.61731804  0.59416703    -0.18500
C1303       C  0.23092102  0.63155774  0.56694593    -0.10800
C1304       C  0.20759864  0.63089212  0.55280695     0.21900
C1305       C  0.19012909  0.61577827  0.56668106    -0.20100
C1306       C  0.19562187  0.60162476  0.59374894    -0.10900
C1307       C  0.20038686  0.64520095  0.52362657    -0.15100
C1308       C  0.21292359  0.66399493  0.51101607    -0.29000
C1309       C  0.22532303  0.58668602  0.63633617    -0.03200
C1310       C  0.21390365  0.56554692  0.64315101    -0.39800
H1311       H  0.25452407  0.61804751  0.60445544     0.13000
H1312       H  0.24508604  0.64267324  0.55699057     0.12600
H1313       H  0.17196602  0.61500834  0.55662190     0.12100
H1314       H  0.18135113  0.59074789  0.60394691     0.12300
H1315       H  0.18312187  0.64063670  0.51240661     0.15100
H1316       H  0.23003331  0.66934509  0.52185882     0.13800
H1317       H  0.24036150  0.59242526  0.65155117     0.11500
H1318       H  0.20057779  0.55838585  0.62632185     0.13500
C1319       C  0.21799745  0.59548160  0.86293220     0.19600
C1320       C  0.19886596  0.59667833  0.88480049    -0.18500
C1321       C  0.19896456  0.61389287  0.90979132    -0.10800
C1322       C  0.21844610  0.63012491  0.91373359     0.21900
C1323       C  0.23772859  0.62878638  0.89211558    -0.20100
C1324       C  0.23747008  0.61179447  0.86681132    -0.10900
C1325       C  0.21987130  0.64744844  0.94131337    -0.15100
C1326       C  0.20024588  0.65830685  0.95445681    -0.29000
C1327       C  0.21773608  0.57590118  0.83793007    -0.03200
C1328       C  0.23019771  0.57687969  0.81038150    -0.39800
H1329       H  0.18384787  0.58407318  0.88270026     0.13000
H1330       H  0.18416406  0.61391228  0.92658004     0.12600
H1331       H  0.25311588  0.64085128  0.89494216     0.12100
H1332       H  0.25288578  0.61098215  0.85106005     0.12300
H1333       H  0.23774787  0.65190811  0.95071550     0.15100
H1334       H  0.18246380  0.65479737  0.94406915     0.13800
H1335       H  0.20645759  0.55998071  0.84215073     0.11500
H1336       H  0.23988418  0.59341436  0.80410341     0.13500
C1337       C  0.30037882  0.88038836  0.03486554     0.19600
C1338       C  0.28401067  0.88690042  0.55157944    -0.18500
C1339       C  0.27119532  0.90931885  0.55115506    -0.10800
C1340       C  0.27194876  0.92404908  0.03107358     0.21900
C1341       C  0.28204657  0.91351555  0.00346152    -0.20100
C1342       C  0.29614278  0.89209411  0.00527995    -0.10900
C1343       C  0.25561899  0.94592921  0.02697725    -0.15100
C1344       C  0.24524061  0.95866150  0.05104073    -0.29000
C1345       C  0.30410765  0.85131852  0.52390639    -0.03200
C1346       C  0.31451193  0.84039091  0.01297966    -0.39800
H1347       H  0.28916723  0.87886821  0.57440302     0.13000
H1348       H  0.26672199  0.91768636  0.57384559     0.12600
H1349       H  0.27882119  0.92177331  0.98019269     0.12100
H1350       H  0.30378137  0.88481974  0.98340915     0.12300
H1351       H  0.25135671  0.95144729  0.00252409     0.15100
H1352       H  0.24860202  0.95354443  0.56857875     0.13800
H1353       H  0.30198645  0.83941213  0.54451475     0.11500
H1354       H  0.30236481  0.84380219  0.99276805     0.13500
C1355       C  0.26430434  0.10303706  0.01724517     0.19600
C1356       C  0.26838179  0.11658575  0.98919464    -0.18500
C1357       C  0.28067891  0.13901226  0.99034353    -0.10800
C1358       C  0.28759366  0.15027464  0.51301217     0.21900
C1359       C  0.27678324  0.14080868  0.54057875    -0.20100
C1360       C  0.27320567  0.11251289  0.04658551    -0.10900
C1361       C  0.29973496  0.17466138  0.51550733    -0.15100
C1362       C  0.31430122  0.18422491  0.49308079    -0.29000
C1363       C  0.25008109  0.07974340  0.01474450    -0.03200
C1364       C  0.24273420  0.06663252  0.04015509    -0.39800
H1365       H  0.26167683  0.10998364  0.96627175     0.13000
H1366       H  0.28282591  0.14918493  0.96833899     0.12600
H1367       H  0.27753937  0.15095848  0.56293828     0.12100
H1368       H  0.25601006  0.11242193  0.56147110     0.12300
H1369       H  0.29642804  0.18525892  0.53705513     0.15100
H1370       H  0.31716472  0.17198460  0.97707035     0.13800
H1371       H  0.24430217  0.07383830  0.99097698     0.11500
H1372       H  0.24908678  0.07305676  0.55831842     0.13500
C1373       C  0.85910997  0.31372192  0.49460554     0.19600
C1374       C  0.87714001  0.31502513  0.51856447    -0.18500
C1375       C  0.89846379  0.30096692  0.51648069    -0.10800
C1376       C  0.90149995  0.28242519  0.99472251     0.21900
C1377       C  0.88496423  0.28420095  0.96896851    -0.20100
C1378       C  0.86420182  0.29911089  0.97103367    -0.10900
C1379       C  0.92350747  0.26643526  0.99114053    -0.15100
C1380       C  0.93711629  0.25831701  0.01601184    -0.29000
C1381       C  0.83683491  0.32935570  0.49787969    -0.03200
C1382       C  0.81708891  0.32633011  0.98524214    -0.39800
H1383       H  0.87469118  0.32696173  0.53911716     0.13000
H1384       H  0.91192936  0.30283736  0.53533036     0.12600
H1385       H  0.88815679  0.27403999  0.94703555     0.12100
H1386       H  0.85233806  0.30033642  0.95029224     0.12300
H1387       H  0.92805005  0.26019927  0.96716510     0.15100
H1388       H  0.93285512  0.26747244  0.53669859     0.13800
H1389       H  0.83808378  0.34494753  0.51402769     0.11500
H1390       H  0.81605233  0.31106754  0.96855828     0.13500
C1391       C  0.08109182  0.28472699  0.49935135     0.19600
C1392       C  0.09371156  0.28762536  0.96867671    -0.18500
C1393       C  0.11530158  0.30099984  0.96989032    -0.10800
C1394       C  0.12488128  0.31178626  0.50230427     0.21900
C1395       C  0.11285512  0.30514851  0.53042726    -0.20100
C1396       C  0.09131519  0.29171629  0.52908517    -0.10900
C1397       C  0.14755727  0.32643949  0.50497958    -0.15100
C1398       C  0.16428342  0.32781833  0.48157629    -0.29000
C1399       C  0.05723716  0.26909136  0.99355012    -0.03200
C1400       C  0.04474136  0.26031848  0.01865120    -0.39800
H1401       H  0.08799441  0.27971117  0.94600127     0.13000
H1402       H  0.12511497  0.30329555  0.94787113     0.12600
H1403       H  0.12027258  0.31022960  0.55363985     0.12100
H1404       H  0.08302202  0.28690276  0.55147481     0.12300
H1405       H  0.15066311  0.33591366  0.52754240     0.15100
H1406       H  0.16248971  0.31404278  0.95872278     0.13800
H1407       H  0.05150209  0.26367179  0.96956689     0.11500
H1408       H  0.05049308  0.26526709  0.54528778     0.13500
C1409       C  0.07199783  0.12892985  0.53133222     0.19600
C1410       C  0.08570886  0.11944886  0.00328948    -0.18500
C1411       C  0.09998364  0.09978308  0.50644214    -0.10800
C1412       C  0.10997727  0.09352280  0.53665482     0.21900
C1413       C  0.10046742  0.10501775  0.56397276    -0.20100
C1414       C  0.08174420  0.12238702  0.56136150    -0.10900
C1415       C  0.12988974  0.07498625  0.54125806    -0.15100
C1416       C  0.14279224  0.06241108  0.01865530    -0.29000
C1417       C  0.05203997  0.14760448  0.53028168    -0.03200
C1418       C  0.04594537  0.15914875  0.00247894    -0.39800
H1419       H  0.08018809  0.12489800  0.97941733     0.13000
H1420       H  0.11233704  0.09485665  0.98476222     0.12600
H1421       H  0.10757359  0.10056098  0.58757512     0.12100
H1422       H  0.07492998  0.13087862  0.58301473     0.12300
H1423       H  0.13492231  0.07032894  0.56577213     0.15100
H1424       H  0.13819885  0.06563035  0.99373318     0.13800
H1425       H  0.04636207  0.15289698  0.05195306     0.11500
H1426       H  0.05258863  0.15603252  0.48073594     0.13500
C1427       C  0.69230073  0.87544154  0.00141764     0.19600
C1428       C  0.68907769  0.89672628  0.98289086    -0.18500
C1429       C  0.70465015  0.91679269  0.98692102    -0.10800
C1430       C  0.72517901  0.91852620  0.51625457     0.21900
C1431       C  0.72916329  0.89684615  0.53365828    -0.20100
C1432       C  0.71332167  0.87712089  0.53058666    -0.10900
C1433       C  0.74247857  0.93900555  0.52082775    -0.15100
C1434       C  0.74603266  0.95361803  0.99382887    -0.29000
C1435       C  0.67531482  0.85454769  0.99809024    -0.03200
C1436       C  0.68318622  0.83107943  0.00006608    -0.39800
H1437       H  0.67457214  0.89776613  0.96522920     0.13000
H1438       H  0.70160535  0.93298589  0.97240246     0.12600
H1439       H  0.74467878  0.89512628  0.54966689     0.12100
H1440       H  0.71681206  0.86081150  0.54475882     0.12300
H1441       H  0.75281011  0.93935124  0.54316285     0.15100
H1442       H  0.73838431  0.95247111  0.96980784     0.13800
H1443       H  0.65605177  0.85847826  0.99564137     0.11500
H1444       H  0.70238628  0.83078348  0.50922768     0.13500
C1445       C  0.69761983  0.14062221  0.01383937     0.19600
C1446       C  0.71310539  0.13189122  0.54466403    -0.18500
C1447       C  0.72553508  0.10944064  0.54175211    -0.10800
C1448       C  0.72229126  0.09471750  0.00837696     0.21900
C1449       C  0.70886344  0.10444324  0.98244719    -0.20100
C1450       C  0.69661999  0.12705332  0.98508253    -0.10900
C1451       C  0.73742161  0.07214265  0.00317084    -0.15100
C1452       C  0.74988194  0.05978829  0.53044271    -0.29000
C1453       C  0.68859020  0.16660866  0.52199450    -0.03200
C1454       C  0.67080259  0.17535083  0.50259246    -0.39800
H1455       H  0.71451922  0.14202492  0.56697975     0.13000
H1456       H  0.73644108  0.10318458  0.56185340     0.12600
H1457       H  0.70837667  0.09480337  0.95970241     0.12100
H1458       H  0.68733637  0.13421149  0.96410698     0.12300
H1459       H  0.74138059  0.06724951  0.97849795     0.15100
H1460       H  0.74597244  0.06347902  0.55540842     0.13800
H1461       H  0.69589214  0.17867202  0.54045518     0.11500
H1462       H  0.66246227  0.16310352  0.48520987     0.13500
C1463       C  0.91316672  0.12793333  0.51307941     0.19600
C1464       C  0.90916637  0.11155961  0.53833590    -0.18500
C1465       C  0.89219752  0.09275263  0.53523266    -0.10800
C1466       C  0.87799643  0.08744686  0.00903831     0.21900
C1467       C  0.89035115  0.09607761  0.98216993    -0.20100
C1468       C  0.90835332  0.11388193  0.98527817    -0.10900
C1469       C  0.85861158  0.06882227  0.00392438    -0.15100
C1470       C  0.85105289  0.05684455  0.52591396    -0.29000
C1471       C  0.93135308  0.14769719  0.51776492    -0.03200
C1472       C  0.94251433  0.15646509  0.99602992    -0.39800
H1473       H  0.91940819  0.11317427  0.56053578     0.13000
H1474       H  0.89024451  0.08033892  0.55514920     0.12600
H1475       H  0.88613720  0.08889907  0.95853203     0.12100
H1476       H  0.91755740  0.11940343  0.96382017     0.12300
H1477       H  0.85249791  0.06572872  0.97940078     0.15100
H1478       H  0.85715126  0.05934672  0.55044998     0.12600
H1479       H  0.93717415  0.15168651  0.54218908     0.11500
H1480       H  0.93661620  0.15347712  0.97150892     0.13500
C1481       C  0.86606885  0.71638866  0.49650401     0.19600
C1482       C  0.88073659  0.72133222  0.02132789    -0.18500
C1483       C  0.90329683  0.73241591  0.01769031    -0.10800
C1484       C  0.91139355  0.73948239  0.48827603     0.21900
C1485       C  0.89859835  0.72986399  0.46185459    -0.20100
C1486       C  0.87624365  0.71833491  0.46586159    -0.10900
C1487       C  0.93410529  0.75337225  0.48267425    -0.15100
C1488       C  0.95223035  0.75468762  0.00499489    -0.29000
C1489       C  0.84313712  0.70242175  0.99955890    -0.03200
C1490       C  0.83224096  0.68616242  0.97980622    -0.39800
H1491       H  0.87297813  0.72043078  0.04501942     0.13000
H1492       H  0.91192104  0.74011946  0.03876354     0.12600
H1493       H  0.90577375  0.73159567  0.43792452     0.12100
H1494       H  0.86667662  0.71178004  0.44479634     0.12300
H1495       H  0.93658220  0.76107420  0.45894891     0.15100
H1496       H  0.95043321  0.74713375  0.02884587     0.13800
H1497       H  0.83347818  0.70857531  0.02071604     0.11500
H1498       H  0.84217791  0.67878115  0.95958315     0.13500
C1499       C  0.09661333  0.74013837  0.48734973     0.19600
C1500       C  0.10988726  0.72954436  0.51277244    -0.18500
C1501       C  0.13211932  0.71767733  0.50751636    -0.10800
C1502       C  0.14177160  0.71607465  0.47645426     0.21900
C1503       C  0.12851559  0.72676135  0.45102433    -0.20100
C1504       C  0.10625344  0.73863971  0.45629997    -0.10900
C1505       C  0.16574579  0.70423191  0.46946959    -0.15100
C1506       C  0.17866507  0.69024000  0.49037207    -0.29000
C1507       C  0.07379999  0.75390385  0.49482215    -0.03200
C1508       C  0.05700842  0.76104803  0.47291968    -0.39800
H1509       H  0.10313728  0.73068545  0.53701092     0.13000
H1510       H  0.14170274  0.71034709  0.52810917     0.12600
H1511       H  0.13552688  0.72611383  0.42689517     0.12100
H1512       H  0.09710552  0.74709511  0.43607039     0.12300
H1513       H  0.17310961  0.70688242  0.44569684     0.15100
H1514       H  0.17159950  0.68688646  0.51404736     0.13800
H1515       H  0.07092561  0.75877750  0.51977797     0.11500
H1516       H  0.05891801  0.75607311  0.44790416     0.13500
C1517       C  0.91707551  0.88655546  0.99948890     0.19600
C1518       C  0.89974039  0.89194055  0.97552058    -0.18500
C1519       C  0.88141982  0.90948865  0.98061911    -0.10800
C1520       C  0.88007968  0.92236764  0.00987624     0.21900
C1521       C  0.89735307  0.91696275  0.03388404    -0.20100
C1522       C  0.91572541  0.89945600  0.02876176    -0.10900
C1523       C  0.86068769  0.94101911  0.01654814    -0.15100
C1524       C  0.85021529  0.95552258  0.49304135    -0.29000
C1525       C  0.93640272  0.86785359  0.99255297    -0.03200
C1526       C  0.95058666  0.85698285  0.01506279    -0.39800
H1527       H  0.90023155  0.88234580  0.95275159     0.13000
H1528       H  0.86814680  0.91252922  0.96175303     0.12600
H1529       H  0.89680621  0.92655964  0.05664717     0.12100
H1530       H  0.92892832  0.89647111  0.04769721     0.12300
H1531       H  0.85600658  0.94486233  0.54073826     0.15100
H1532       H  0.85312795  0.95069388  0.96850267     0.13800
H1533       H  0.93869003  0.86239707  0.96768787     0.11500
H1534       H  0.94943984  0.86260507  0.54224184     0.13500
C1535       C  0.11651667  0.92837462  0.00797025     0.19600
C1536       C  0.09890734  0.92651860  0.98356498    -0.18500
C1537       C  0.08169909  0.90773645  0.98399052    -0.10800
C1538       C  0.08522383  0.88860616  0.50800144     0.21900
C1539       C  0.09868144  0.89437576  0.53573204    -0.20100
C1540       C  0.11613917  0.91279549  0.53537951    -0.10900
C1541       C  0.06657233  0.86904582  0.51020707    -0.15100
C1542       C  0.05196080  0.86193083  0.48590437    -0.29000
C1543       C  0.13465162  0.94844088  0.00689980    -0.03200
C1544       C  0.14458674  0.95811927  0.03362501    -0.39800
H1545       H  0.09825254  0.93986037  0.96435704     0.13000
H1546       H  0.06802823  0.90739515  0.96524188     0.12600
H1547       H  0.09567482  0.88458310  0.55787830     0.12100
H1548       H  0.12635738  0.91629858  0.55715926     0.12300
H1549       H  0.06475685  0.86000699  0.53324084     0.15100
H1550       H  0.05264736  0.86965142  0.96213169     0.13800
H1551       H  0.13926338  0.95600821  0.98371196     0.11500
H1552       H  0.13640911  0.95598079  0.55485486     0.13500
loop_ 
_geom_bond_atom_site_label_1 
_geom_bond_atom_site_label_2 
_geom_bond_distance 
_geom_bond_site_symmetry_2 
_ccdc_geom_bond_type 
O1            V9   1.901       .  S
O1           C11   1.265   1_554  A
O2            V9   1.901   1_655  S
O2          C788   1.264       .  A
O3            V9   1.908       .  S
O3           C13   1.266   1_554  A
O4            V9   1.906   1_655  S
O4          C790   1.266       .  A
O5           V10   1.902       .  S
O5           C14   1.266       .  A
O6           V10   1.907   1_455  S
O6          C789   1.265       .  A
O7           V10   1.902       .  S
O7           C12   1.265       .  A
O8           V10   1.900   1_455  S
O8          C787   1.263       .  A
V9          V786   2.087   1_454  T
V10         V785   2.087   1_655  T
C11         O784   1.264       .  A
C11         C766   1.479       .  S
C12         O778   1.265       .  A
C12         C712   1.479       .  S
C13         O782   1.265       .  A
C13         C732   1.484       .  S
C14         O780   1.264       .  A
C14         C750   1.479       .  S
O15          V23   1.900   1_565  S
O15         C801   1.264       .  A
O16          V23   1.900       .  S
O16         C802   1.265       .  A
O17          V23   1.903       .  S
O17         C803   1.266       .  A
O18          V23   1.904   1_565  S
O18         C804   1.264       .  A
O19          V24   1.903   1_565  S
O19          C28   1.266       .  A
O20          V24   1.902       .  S
O20          C27   1.264       .  A
O21          V24   1.911       .  S
O21          C26   1.267       .  A
O22          V24   1.912   1_565  S
O22          C25   1.267       .  A
V23         V800   2.088       .  T
V24         V799   2.087   1_554  T
C25         O791   1.264   1_554  A
C25         C748   1.484   1_554  S
C26         O792   1.265   1_554  A
C26         C676   1.485       .  S
C27         O793   1.266   1_554  A
C27         C694   1.481       .  S
C28         O794   1.265   1_554  A
C28        C1434   1.481   1_554  S
O29          V37   1.898       .  S
O29          C39   1.263       .  A
O30          V37   1.904   1_455  S
O30          C40   1.266       .  A
O31          V37   1.909   1_455  S
O31          C41   1.266       .  A
O32          V37   1.913       .  S
O32          C42   1.267       .  A
O33          V38   1.896       .  S
O33         C818   1.262       .  A
O34          V38   1.892   1_455  S
O34         C817   1.263       .  A
O35          V38   1.908   1_455  S
O35         C816   1.266       .  A
O36          V38   1.910       .  S
O36         C815   1.267       .  A
V37         V814   2.087       .  T
V38         V813   2.087   1_554  T
C39         O812   1.266       .  A
C39         C696   1.476       .  S
C40         O811   1.265       .  A
C40         C624   1.482       .  S
C41         O810   1.264       .  A
C41         C642   1.482       .  S
C42         O809   1.263       .  A
C42         C604   1.482       .  S
O43          V51   1.906       .  S
O43         C829   1.267       .  A
O44          V51   1.905   1_565  S
O44         C830   1.265       .  A
O45          V51   1.894       .  S
O45         C831   1.262       .  A
O46          V51   1.894   1_565  S
O46         C832   1.262       .  A
O47          V52   1.907   1_565  S
O47          C56   1.267       .  A
O48          V52   1.912       .  S
O48          C55   1.267       .  A
O49          V52   1.901   1_565  S
O49          C54   1.265       .  A
O50          V52   1.898       .  S
O50          C53   1.263       .  A
V51         V828   2.087       .  T
V52         V827   2.087       .  T
C53         O819   1.267       .  A
C53         C640   1.480       .  S
C54         O820   1.266       .  A
C54         C568   1.484       .  S
C55         O821   1.262       .  A
C55         C588   1.478       .  S
C56         O822   1.261       .  A
C56         C768   1.473       .  S
C57         C516   1.532       .  S
C57         C532   1.533   1_556  S
C57         C730   1.534       .  S
C57        C1326   1.531       .  S
C58         C478   1.532       .  S
C58         C514   1.527       .  S
C58         C570   1.537       .  S
C58        C1272   1.533       .  S
N59          C64   1.352       .  A
N59          C63   1.355       .  A
N59          H91   1.038       .  S
N60          C67   1.354       .  A
N60          C68   1.354       .  A
N61          C66   1.358       .  A
N61          C65   1.353       .  A
N61          H92   1.038       .  S
N62          C69   1.353       .  A
N62          C70   1.351       .  A
C63          C71   1.388       .  A
C63          C79   1.418       .  A
C64          C80   1.411       .  A
C64          C72   1.385       .  A
C65          C73   1.386       .  A
C65          C82   1.416       .  A
C66          C81   1.421       .  A
C66          C74   1.388       .  A
C67          C79   1.414       .  A
C67          C75   1.384       .  A
C68          C82   1.420       .  A
C68          C76   1.388       .  A
C69          C77   1.387       .  A
C69          C80   1.415       .  A
C70          C78   1.385       .  A
C70          C81   1.411       .  A
C71          C72   1.375       .  A
C71          H83   1.082       .  S
C72          H84   1.083       .  S
C73          C74   1.377       .  A
C73          H85   1.082       .  S
C74          H86   1.082       .  S
C75          C76   1.376       .  A
C75          H87   1.082       .  S
C76          H88   1.081       .  S
C77          C78   1.374       .  A
C77          H89   1.081       .  S
C78          H90   1.083       .  S
C79         C498   1.496       .  S
C80         C444   1.489       .  S
C81         C460   1.495       .  S
C82         C480   1.496       .  S
C93         C424   1.536       .  S
C93         C462   1.534       .  S
C93         C660   1.527       .  S
C93        C1218   1.535       .  S
C94         C390   1.529       .  S
C94         C426   1.528       .  S
C94         C714   1.532       .  S
C94        C1182   1.529       .  S
C95         C334   1.533       .  S
C95         C354   1.537       .  S
C95         C586   1.536   1_554  S
C95        C1146   1.538   1_554  S
C96         C316   1.538   1_556  S
C96         C336   1.533       .  S
C96         C622   1.539       .  S
C96        C1076   1.532       .  S
N97         C102   1.357       .  A
N97         C101   1.353       .  A
N97         H129   1.040       .  S
N98         C105   1.354       .  A
N98         C106   1.355       .  A
N99         C104   1.353       .  A
N99         C103   1.355       .  A
N99         H130   1.039       .  S
N100        C107   1.354       .  A
N100        C108   1.352       .  A
C101        C109   1.387       .  A
C101        C117   1.415       .  A
C102        C118   1.419       .  A
C102        C110   1.387       .  A
C103        C111   1.387       .  A
C103        C120   1.418       .  A
C104        C119   1.415       .  A
C104        C112   1.387       .  A
C105        C117   1.418       .  A
C105        C113   1.387       .  A
C106        C120   1.416       .  A
C106        C114   1.385       .  A
C107        C115   1.386       .  A
C107        C118   1.415       .  A
C108        C116   1.387       .  A
C108        C119   1.416       .  A
C109        C110   1.374       .  A
C109        H121   1.082       .  S
C110        H122   1.082       .  S
C111        C112   1.376       .  A
C111        H123   1.082       .  S
C112        H124   1.082       .  S
C113        C114   1.375       .  A
C113        H125   1.082       .  S
C114        H126   1.082       .  S
C115        C116   1.373       .  A
C115        H127   1.082       .  S
C116        H128   1.082       .  S
C117        C534   1.492       .  S
C118        C318   1.500       .  S
C119        C298   1.486       .  S
C120        C552   1.497       .  S
N131        C136   1.355       .  A
N131        C135   1.354       .  A
N131        H163   1.039       .  S
N132        C139   1.354       .  A
N132        C140   1.353       .  A
N133        C138   1.354       .  A
N133        C137   1.354       .  A
N133        H164   1.039       .  S
N134        C141   1.353       .  A
N134        C142   1.353       .  A
C135        C143   1.386       .  A
C135        C151   1.416       .  A
C136        C152   1.419       .  A
C136        C144   1.387       .  A
C137        C145   1.388       .  A
C137        C154   1.418       .  A
C138        C153   1.414       .  A
C138        C146   1.386       .  A
C139        C151   1.417       .  A
C139        C147   1.387       .  A
C140        C154   1.413       .  A
C140        C148   1.385       .  A
C141        C149   1.385       .  A
C141        C152   1.412       .  A
C142        C150   1.387       .  A
C142        C153   1.416       .  A
C143        C144   1.377       .  A
C143        H155   1.082       .  S
C144        H156   1.082       .  S
C145        C146   1.375       .  A
C145        H157   1.082       .  S
C146        H158   1.082       .  S
C147        C148   1.372       .  A
C147        H159   1.081       .  S
C148        H160   1.082       .  S
C149        C150   1.371       .  A
C149        H161   1.082       .  S
C150        H162   1.081       .  S
C151        C280   1.494       .  S
C152        C352   1.495       .  S
C153        C372   1.492       .  S
C154        C262   1.493       .  S
C165        C244   1.531   1_554  S
C165        C282   1.533       .  S
C165        C678   1.535   1_554  S
C165       C1040   1.533   1_554  S
C166        C226   1.527       .  S
C166        C246   1.532       .  S
C166        C606   1.537       .  S
C166        C984   1.535       .  S
N167        C172   1.354       .  A
N167        C171   1.355       .  A
N167        H199   1.039       .  S
N168        C175   1.354       .  A
N168        C176   1.353       .  A
N169        C174   1.356       .  A
N169        C173   1.355       .  A
N169        H200   1.038       .  S
N170        C177   1.353       .  A
N170        C178   1.352       .  A
C171        C179   1.387       .  A
C171        C187   1.418       .  A
C172        C188   1.414       .  A
C172        C180   1.386       .  A
C173        C181   1.388       .  A
C173        C190   1.419       .  A
C174        C189   1.419       .  A
C174        C182   1.387       .  A
C175        C187   1.414       .  A
C175        C183   1.385       .  A
C176        C190   1.418       .  A
C176        C184   1.389       .  A
C177        C185   1.386       .  A
C177        C188   1.413       .  A
C178        C186   1.387       .  A
C178        C189   1.414       .  A
C179        C180   1.375       .  A
C179        H191   1.082       .  S
C180        H192   1.082       .  S
C181        C182   1.375       .  A
C181        H193   1.082       .  S
C182        H194   1.082       .  S
C183        C184   1.369       .  A
C183        H195   1.082       .  S
C184        H196   1.081       .  S
C185        C186   1.372       .  A
C185        H197   1.082       .  S
C186        H198   1.082       .  S
C187        C210   1.494       .  S
C188        C408   1.488       .  S
C189        C388   1.492       .  S
C190        C228   1.489       .  S
C201        C209   1.493       .  S
C201        C202   1.403       .  A
C201        C206   1.411       .  A
C202        C203   1.397       .  A
C202        H211   1.083       .  S
C203        C204   1.407       .  A
C203        H212   1.082       .  S
C204        C207   1.490       .  S
C204        C205   1.403       .  A
C205        C206   1.403       .  A
C205        H213   1.083       .  S
C206        H214   1.080       .  S
C207        H215   1.087       .  S
C207        C208   1.349       .  D
C208        C942   1.536   1_554  S
C208        H216   1.087       .  S
C209        H217   1.088       .  S
C209        C210   1.347       .  D
C210        H218   1.083       .  S
C219        C227   1.487       .  S
C219        C220   1.404       .  A
C219        C224   1.407       .  A
C220        C221   1.400       .  A
C220        H229   1.083       .  S
C221        C222   1.408       .  A
C221        H230   1.081       .  S
C222        C225   1.485       .  S
C222        C223   1.402       .  A
C223        C224   1.396       .  A
C223        H231   1.084       .  S
C224        H232   1.081       .  S
C225        H233   1.087       .  S
C225        C226   1.349       .  D
C226        H234   1.085       .  S
C227        H235   1.087       .  S
C227        C228   1.346       .  D
C228        H236   1.084       .  S
C237       C1021   1.493       .  S
C237        C238   1.404       .  A
C237        C242   1.408   1_556  A
C238        C239   1.400       .  A
C238       H1023   1.083       .  S
C239        C240   1.408       .  A
C239        H248   1.081       .  S
C240        C243   1.495       .  S
C240        C241   1.406   1_556  A
C241        C242   1.404       .  A
C241        H249   1.083       .  S
C242        H250   1.081       .  S
C243        H251   1.087   1_556  S
C243        C244   1.351       .  D
C244        H252   1.085       .  S
C245       C1013   1.492       .  S
C245        H253   1.086       .  S
C245        C246   1.351       .  D
C246        H254   1.084       .  S
H247       C1014   1.083       .  S
C255        C263   1.487       .  S
C255        C256   1.403       .  A
C255        C260   1.407       .  A
C256        C257   1.401       .  A
C256        H265   1.083       .  S
C257        C258   1.409       .  A
C257        H266   1.081       .  S
C258        C261   1.488       .  S
C258        C259   1.403       .  A
C259        C260   1.397       .  A
C259        H267   1.084       .  S
C260        H268   1.082       .  S
C261        H269   1.087       .  S
C261        C262   1.347       .  D
C262        H270   1.085       .  S
C263        H271   1.087       .  S
C263        C264   1.348       .  D
C264        C941   1.529       .  S
C264        H272   1.086       .  S
C273        C281   1.490       .  S
C273        C274   1.404       .  A
C273        C278   1.409       .  A
C274        C275   1.398       .  A
C274        H283   1.083       .  S
C275        C276   1.407       .  A
C275        H284   1.082       .  S
C276        C279   1.490       .  S
C276        C277   1.405       .  A
C277        C278   1.403       .  A
C277        H285   1.083       .  S
C278        H286   1.081       .  S
C279        H287   1.087       .  S
C279        C280   1.348       .  D
C280        H288   1.086       .  S
C281        H289   1.087       .  S
C281        C282   1.351       .  D
C282        H290   1.085       .  S
C291        C299   1.487       .  S
C291        C292   1.404       .  A
C291        C296   1.406       .  A
C292        C293   1.399       .  A
C292        H301   1.084       .  S
C293        C294   1.408       .  A
C293        H302   1.079       .  S
C294        C297   1.490       .  S
C294        C295   1.405       .  A
C295        C296   1.398       .  A
C295        H303   1.083       .  S
C296        H304   1.081       .  S
C297        H305   1.088       .  S
C297        C298   1.346       .  D
C298        H306   1.082       .  S
C299        H307   1.087       .  S
C299        C300   1.352       .  D
C300        C872   1.527       .  S
C300        H308   1.085       .  S
C309        C317   1.497       .  S
C309        C310   1.406       .  A
C309        C314   1.410       .  A
C310        C311   1.400       .  A
C310        H319   1.083       .  S
C311        C312   1.408       .  A
C311        H320   1.081       .  S
C312        C315   1.494       .  S
C312        C313   1.405       .  A
C313        C314   1.403       .  A
C313        H321   1.083       .  S
C314        H322   1.080       .  S
C315        H323   1.084       .  S
C315        C316   1.353       .  D
C316        H324   1.085       .  S
C317        H325   1.087       .  S
C317        C318   1.351       .  D
C318        H326   1.083       .  S
C327       C1111   1.490       .  S
C327        C332   1.408       .  A
C327       C1104   1.404       .  A
C328        C329   1.405       .  A
C328       C1103   1.406   1_554  A
C328        H337   1.083       .  S
C329       C1106   1.408   1_554  A
C329        H338   1.082       .  S
C330        C333   1.488       .  S
C330        C331   1.402       .  A
C330       C1105   1.408       .  A
C331        C332   1.397       .  A
C331        H339   1.084       .  S
C332        H340   1.082       .  S
C333        H341   1.087       .  S
C333       C1110   1.349       .  D
C334        H342   1.086       .  S
C334       C1109   1.351   1_554  D
C335       C1103   1.492   1_554  S
C335        H343   1.087       .  S
C335        C336   1.350   1_554  D
C336       H1120   1.087       .  S
H344       C1112   1.087       .  S
C345        C353   1.495       .  S
C345        C346   1.405       .  A
C345        C350   1.409       .  A
C346        C347   1.403       .  A
C346        H355   1.083       .  S
C347        C348   1.409       .  A
C347        H356   1.081       .  S
C348        C351   1.491       .  S
C348        C349   1.403       .  A
C349        C350   1.398       .  A
C349        H357   1.084       .  S
C350        H358   1.081       .  S
C351        H359   1.087       .  S
C351        C352   1.347       .  D
C352        H360   1.084       .  S
C353        H361   1.083       .  S
C353        C354   1.350       .  D
C354        H362   1.085       .  S
C363        C371   1.489       .  S
C363        C364   1.404       .  A
C363        C368   1.407       .  A
C364        C365   1.402       .  A
C364        H373   1.083       .  S
C365        C366   1.410       .  A
C365        H374   1.080       .  S
C366        C369   1.490       .  S
C366        C367   1.404       .  A
C367        C368   1.395       .  A
C367        H375   1.084       .  S
C368        H376   1.081       .  S
C369        H377   1.088       .  S
C369        C370   1.351       .  D
C370        C871   1.535       .  S
C370        H378   1.084       .  S
C371        H379   1.087       .  S
C371        C372   1.348       .  D
C372        H380   1.085       .  S
C381        C389   1.490       .  S
C381        C382   1.402       .  A
C381        C386   1.408       .  A
C382        C383   1.399       .  A
C382        H391   1.083       .  S
C383        C384   1.411       .  A
C383        H392   1.079       .  S
C384        C387   1.496       .  S
C384        C385   1.406       .  A
C385        C386   1.401       .  A
C385        H393   1.083       .  S
C386        H394   1.082       .  S
C387        H395   1.087       .  S
C387        C388   1.348       .  D
C388        H396   1.082       .  S
C389        H397   1.087       .  S
C389        C390   1.347       .  D
C390        H398   1.086       .  S
C399        C407   1.483       .  S
C399        C400   1.407       .  A
C399        C404   1.402       .  A
C400        C401   1.402       .  A
C400        H409   1.083       .  S
C401        C402   1.407       .  A
C401        H410   1.083       .  S
C402        C405   1.482       .  S
C402        C403   1.402       .  A
C403        C404   1.398       .  A
C403        H411   1.083       .  S
C404        H412   1.083       .  S
C405        H413   1.087       .  S
C405        C406   1.348       .  D
C406        C870   1.531   1_554  S
C406        H414   1.087       .  S
C407        H415   1.087       .  S
C407        C408   1.344       .  D
C408        H416   1.086       .  S
C417        C425   1.489       .  S
C417        C418   1.403   1_556  A
C417        C422   1.407       .  A
C418        C419   1.401       .  A
C418        H427   1.083       .  S
C419       C1196   1.409   1_554  A
C419        H428   1.081       .  S
C420        C423   1.490       .  S
C420        C421   1.404       .  A
C420       C1195   1.408       .  A
C421       C1198   1.398       .  A
C421        H429   1.084       .  S
C422       C1197   1.400       .  A
C422       H1206   1.082       .  S
C423        H431   1.083       .  S
C423        C424   1.351       .  D
C424       H1208   1.085       .  S
C425        H433   1.087       .  S
C425       C1202   1.349       .  D
C426        H434   1.086       .  S
C426       C1201   1.349       .  D
H430       C1198   1.081       .  S
H432       C1200   1.085       .  S
C435        C443   1.490       .  S
C435        C436   1.403       .  A
C435        C440   1.409       .  A
C436        C437   1.399       .  A
C436        H445   1.083       .  S
C437        C438   1.409       .  A
C437        H446   1.080       .  S
C438        C441   1.490       .  S
C438        C439   1.404       .  A
C439        C440   1.397       .  A
C439        H447   1.084       .  S
C440        H448   1.080       .  S
C441        H449   1.087       .  S
C441        C442   1.351       .  D
C442        C869   1.532       .  S
C442        H450   1.084       .  S
C443        H451   1.087       .  S
C443        C444   1.345       .  D
C444        H452   1.084       .  S
C453        C461   1.493       .  S
C453        C454   1.404       .  A
C453        C458   1.408       .  A
C454        C455   1.403       .  A
C454        H463   1.083       .  S
C455        C456   1.411       .  A
C455        H464   1.080       .  S
C456        C459   1.495       .  S
C456        C457   1.404       .  A
C457        C458   1.398       .  A
C457        H465   1.083       .  S
C458        H466   1.082       .  S
C459        H467   1.087       .  S
C459        C460   1.347       .  D
C460        H468   1.083       .  S
C461        H469   1.083       .  S
C461        C462   1.349       .  D
C462        H470   1.086       .  S
C471        C479   1.495       .  S
C471        C472   1.404       .  A
C471        C476   1.412       .  A
C472        C473   1.397       .  A
C472        H481   1.083       .  S
C473        C474   1.407       .  A
C473        H482   1.081       .  S
C474        C477   1.493       .  S
C474        C475   1.404       .  A
C475        C476   1.403       .  A
C475        H483   1.083       .  S
C476        H484   1.080       .  S
C477        H485   1.086       .  S
C477        C478   1.351       .  D
C478        H486   1.084       .  S
C479        H487   1.087       .  S
C479        C480   1.347       .  D
C480        H488   1.083       .  S
C489        C497   1.488       .  S
C489        C490   1.403       .  A
C489        C494   1.408       .  A
C490        C491   1.399       .  A
C490        H499   1.083       .  S
C491        C492   1.406       .  A
C491        H500   1.083       .  S
C492        C495   1.489       .  S
C492        C493   1.404       .  A
C493        C494   1.405       .  A
C493        H501   1.083       .  S
C494        H502   1.082       .  S
C495        H503   1.086       .  S
C495        C496   1.348       .  D
C496        C834   1.537       .  S
C496        H504   1.087       .  S
C497        H505   1.087       .  S
C497        C498   1.348       .  D
C498        H506   1.086       .  S
C507        C515   1.493       .  S
C507        C508   1.404       .  A
C507        C512   1.410       .  A
C508        C509   1.398       .  A
C508        H517   1.083       .  S
C509        C510   1.406       .  A
C509        H518   1.082       .  S
C510        C513   1.491       .  S
C510        C511   1.405       .  A
C511        C512   1.405       .  A
C511        H519   1.083       .  S
C512        H520   1.081       .  S
C513        H521   1.087       .  S
C513        C514   1.349       .  D
C514        H522   1.087       .  S
C515        H523   1.087       .  S
C515       C1292   1.351       .  D
C516        H524   1.084       .  S
C516       C1291   1.350       .  D
C525        C533   1.493       .  S
C525        C526   1.405       .  A
C525        C530   1.407       .  A
C526        C527   1.403       .  A
C526        H535   1.083       .  S
C527        C528   1.410       .  A
C527        H536   1.080       .  S
C528        C531   1.493       .  S
C528        C529   1.404       .  A
C529        C530   1.397       .  A
C529        H537   1.084       .  S
C530        H538   1.081       .  S
C531        H539   1.087       .  S
C531        C532   1.351       .  D
C532        H540   1.084       .  S
C533        H541   1.087       .  S
C533        C534   1.347       .  D
C534        H542   1.085       .  S
C543        C551   1.492       .  S
C543        C544   1.405       .  A
C543        C548   1.407       .  A
C544        C545   1.403       .  A
C544        H553   1.083       .  S
C545        C546   1.408       .  A
C545        H554   1.082       .  S
C546        C549   1.493       .  S
C546        C547   1.405       .  A
C547        C548   1.402       .  A
C547        H555   1.083       .  S
C548        H556   1.082       .  S
C549        H557   1.087       .  S
C549        C550   1.351       .  D
C550        C833   1.534       .  S
C550        H558   1.086       .  S
C551        H559   1.087       .  S
C551        C552   1.350       .  D
C552        H560   1.086       .  S
C561       C1345   1.493       .  S
C561        C566   1.407       .  A
C561       C1338   1.404       .  A
C562        C563   1.404       .  A
C562       C1337   1.403       .  A
C562        H571   1.083       .  S
C563       C1340   1.412       .  A
C563        H572   1.079       .  S
C564        C567   1.496       .  S
C564        C565   1.405       .  A
C564       C1339   1.411       .  A
C565        C566   1.398       .  A
C565        H573   1.084       .  S
C566        H574   1.082       .  S
C567        H575   1.087       .  S
C567        C568   1.350       .  D
C568       H1352   1.083       .  S
C569       C1337   1.492       .  S
C569        H577   1.084       .  S
C569       C1346   1.350       .  D
C570        H578   1.085       .  S
C570       C1345   1.350       .  D
H576       C1344   1.083       .  S
C579        C587   1.495       .  S
C579        C580   1.405       .  A
C579        C584   1.409       .  A
C580        C581   1.403       .  A
C580        H589   1.083       .  S
C581       C1358   1.411       .  A
C581        H590   1.080       .  S
C582        C585   1.489       .  S
C582        C583   1.402       .  A
C582       C1357   1.407   1_554  A
C583       C1360   1.400       .  A
C583        H591   1.084       .  S
C584       C1359   1.398       .  A
C584       H1368   1.080       .  S
C585        H593   1.082       .  S
C585        C586   1.349   1_554  D
C586       H1370   1.086       .  S
C587        H595   1.087       .  S
C587        C588   1.347       .  D
C588       H1372   1.084       .  S
H592       C1360   1.079       .  S
H594       C1362   1.083       .  S
H596       C1364   1.081       .  S
C597        C605   1.493   1_556  S
C597        C598   1.404   1_556  A
C597       C1378   1.409       .  A
C598        C599   1.401       .  A
C598        H607   1.083       .  S
C599       C1376   1.410   1_554  A
C599        H608   1.080       .  S
C600        C603   1.496       .  S
C600        C601   1.405       .  A
C600       C1375   1.409       .  A
C601        C602   1.402       .  A
C601        H609   1.083       .  S
C602       C1373   1.410       .  A
C602        H610   1.081       .  S
C603        H611   1.087       .  S
C603        C604   1.348       .  D
C604       H1388   1.084       .  S
C605        H613   1.083       .  S
C605       C1382   1.352   1_554  D
C606        H614   1.083       .  S
C606       C1381   1.352       .  D
H612       C1380   1.084       .  S
C615       C1399   1.499       .  S
C615        C620   1.409   1_556  A
C615       C1392   1.406       .  A
C616        C617   1.400       .  A
C616       C1391   1.406       .  A
C616        H625   1.083       .  S
C617       C1394   1.407       .  A
C617        H626   1.081       .  S
C618        C621   1.500   1_556  S
C618        C619   1.407   1_556  A
C618       C1393   1.409       .  A
C619        C620   1.403       .  A
C619        H627   1.083       .  S
C620        H628   1.080       .  S
C621        H629   1.084       .  S
C621        C622   1.356   1_554  D
C622       H1406   1.085       .  S
C623       C1391   1.497       .  S
C623        H631   1.087       .  S
C623        C624   1.350       .  D
C624       H1408   1.082       .  S
H630       C1398   1.086       .  S
H632       C1400   1.083       .  S
C633        C641   1.491       .  S
C633        C638   1.404       .  A
C633       C1410   1.408       .  A
C634       C1409   1.408       .  A
C634       C1411   1.403       .  A
C634        H643   1.081       .  S
C635        C636   1.412       .  A
C635       C1410   1.402       .  A
C635       H1420   1.079   1_554  S
C636        C639   1.494       .  S
C636        C637   1.403       .  A
C637        C638   1.396       .  A
C637        H645   1.083       .  S
C638        H646   1.083       .  S
C639        H647   1.087       .  S
C639       C1416   1.346       .  D
C640        H648   1.082       .  S
C640       C1415   1.347       .  D
C641       H1425   1.087       .  S
C641       C1418   1.350       .  D
C642       H1426   1.084       .  S
C642       C1417   1.349       .  D
H644       C1411   1.079       .  S
H649       C1417   1.087       .  S
H650       C1418   1.083   1_556  S
C651        C659   1.486       .  S
C651        C652   1.404       .  A
C651       C1432   1.406       .  A
C652        C653   1.403       .  A
C652        H661   1.083       .  S
C653       C1430   1.408       .  A
C653        H662   1.082       .  S
C654        C657   1.489       .  S
C654        C655   1.403       .  A
C654       C1429   1.410   1_554  A
C655        C656   1.397       .  A
C655        H663   1.083       .  S
C656       C1427   1.405       .  A
C656        H664   1.083       .  S
C657        H665   1.087       .  S
C657       C1434   1.347   1_554  D
C658        C804   1.478       .  S
C658        H666   1.085       .  S
C658       C1433   1.345       .  D
C659        H667   1.086       .  S
C659        C660   1.347       .  D
C660       H1444   1.087       .  S
H668       C1436   1.088       .  S
C669       C1453   1.492       .  S
C669        C674   1.408       .  A
C669       C1446   1.405       .  A
C670        C671   1.402       .  A
C670       C1445   1.406       .  A
C670        H679   1.083       .  S
C671       C1448   1.408       .  A
C671        H680   1.081       .  S
C672        C675   1.491       .  S
C672        C673   1.404       .  A
C672       C1447   1.408       .  A
C673        C674   1.399       .  A
C673        H681   1.084       .  S
C674        H682   1.081       .  S
C675        H683   1.087       .  S
C675       C1452   1.348       .  D
C676        H684   1.084       .  S
C676       C1451   1.351       .  D
C677       C1445   1.495       .  S
C677        H685   1.087       .  S
C677        C678   1.353   1_554  D
C678        H686   1.085       .  S
C687        C695   1.496       .  S
C687        C688   1.406       .  A
C687       C1468   1.409   1_554  A
C688        C689   1.402       .  A
C688        H697   1.083       .  S
C689       C1466   1.409       .  A
C689        H698   1.080       .  S
C690        C693   1.490       .  S
C690        C691   1.404       .  A
C690       C1465   1.409       .  A
C691        C692   1.398       .  A
C691        H699   1.083       .  S
C692       C1463   1.408       .  A
C692        H700   1.081       .  S
C693        H701   1.087       .  S
C693       C1470   1.346       .  D
C694        H702   1.084       .  S
C694       C1469   1.347       .  D
C695        H703   1.087       .  S
C695       C1472   1.349   1_554  D
C696        H704   1.084       .  S
C696       C1471   1.346       .  D
C705       C1489   1.488       .  S
C705        C710   1.408       .  A
C705       C1482   1.403   1_556  A
C706        C707   1.399       .  A
C706       C1481   1.403       .  A
C706        H715   1.083       .  S
C707       C1484   1.408       .  A
C707        H716   1.081       .  S
C708        C711   1.492       .  S
C708        C709   1.405       .  A
C708       C1483   1.409   1_556  A
C709        C710   1.401       .  A
C709        H717   1.083       .  S
C710        H718   1.082       .  S
C711        H719   1.087       .  S
C711       C1488   1.348   1_556  D
C712        H720   1.085       .  S
C712       C1487   1.348       .  D
C713       C1481   1.488       .  S
C713        H721   1.087       .  S
C713        C714   1.350       .  D
C714        H722   1.086       .  S
C723        C731   1.496       .  S
C723        C724   1.405   1_556  A
C723        C728   1.408       .  A
C724        C725   1.402       .  A
C724        H733   1.083       .  S
C725        C726   1.411   1_554  A
C725        H734   1.079       .  S
C726        C729   1.499       .  S
C726        C727   1.406       .  A
C727        C728   1.401       .  A
C727        H735   1.083       .  S
C728        H736   1.081       .  S
C729        H737   1.087       .  S
C729        C730   1.351       .  D
C730        H738   1.083   1_556  S
C731        H739   1.087   1_556  S
C731        C732   1.350       .  D
C732        H740   1.084       .  S
C741        C749   1.493       .  S
C741        C742   1.404       .  A
C741        C746   1.409       .  A
C742        C743   1.398       .  A
C742        H751   1.084       .  S
C743        C744   1.409       .  A
C743        H752   1.079       .  S
C744        C747   1.494       .  S
C744        C745   1.405       .  A
C745        C746   1.400       .  A
C745        H753   1.083       .  S
C746        H754   1.079       .  S
C747       H1531   1.087       .  S
C747       C1524   1.348       .  D
C748       H1532   1.085       .  S
C748       C1523   1.349   1_556  D
C749        H757   1.087       .  S
C749        C750   1.348       .  D
C750       H1534   1.082       .  S
H755       C1523   1.087       .  S
H756       C1524   1.082       .  S
H758       C1526   1.083       .  S
C759        C767   1.486       .  S
C759        C760   1.402       .  A
C759       C1540   1.407       .  A
C760        C761   1.399       .  A
C760        H769   1.083       .  S
C761       C1538   1.410       .  A
C761        H770   1.079       .  S
C762        C765   1.490       .  S
C762        C763   1.403       .  A
C762       C1537   1.409   1_554  A
C763        C764   1.397       .  A
C763        H771   1.083       .  S
C764       C1535   1.407       .  A
C764        H772   1.082       .  S
C765        H773   1.087       .  S
C765        C766   1.347   1_554  D
C766       H1550   1.084       .  S
C767        H775   1.087       .  S
C767        C768   1.344       .  D
C768       H1552   1.085       .  S
H774       C1542   1.082       .  S
H776       C1544   1.086       .  S
O777        V785   1.901       .  S
O777        C787   1.265       .  A
O778        V785   1.903   1_655  S
O779        V785   1.903       .  S
O779        C789   1.265       .  A
O780        V785   1.902   1_655  S
O781        V786   1.908       .  S
O781        C790   1.266   1_556  A
O782        V786   1.906   1_455  S
O783        V786   1.905       .  S
O783        C788   1.266   1_556  A
O784        V786   1.904   1_455  S
C787       C1542   1.476       .  S
C788       C1488   1.479       .  S
C789       C1508   1.483       .  S
C790       C1526   1.484       .  S
O791        V799   1.903   1_565  S
O792        V799   1.904       .  S
O793        V799   1.906       .  S
O794        V799   1.905   1_565  S
O795        V800   1.899   1_565  S
O795        C804   1.265       .  A
O796        V800   1.898       .  S
O796        C803   1.263       .  A
O797        V800   1.905       .  S
O797        C802   1.265       .  A
O798        V800   1.904   1_565  S
O798        C801   1.266       .  A
C801       C1524   1.478       .  S
C802       C1452   1.480       .  S
C803       C1470   1.475       .  S
O805        V813   1.899       .  S
O805        C815   1.264   1_556  A
O806        V813   1.906   1_455  S
O806        C816   1.266   1_556  A
O807        V813   1.911   1_455  S
O807        C817   1.266   1_556  A
O808        V813   1.914       .  S
O808        C818   1.268   1_556  A
O809        V814   1.899       .  S
O810        V814   1.898   1_455  S
O811        V814   1.905   1_455  S
O812        V814   1.903       .  S
C815       C1472   1.480   1_554  S
C816       C1400   1.485       .  S
C817       C1418   1.481       .  S
C818       C1380   1.481       .  S
O819        V827   1.910       .  S
O820        V827   1.909   1_565  S
O821        V827   1.895       .  S
O822        V827   1.893   1_565  S
O823        V828   1.912   1_565  S
O823        C832   1.267       .  A
O824        V828   1.915       .  S
O824        C831   1.268       .  A
O825        V828   1.904   1_565  S
O825        C830   1.266       .  A
O826        V828   1.898       .  S
O826        C829   1.263       .  A
C829       C1416   1.478       .  S
C830       C1344   1.482       .  S
C831       C1364   1.479       .  S
C832       C1544   1.476       .  S
C833       C1292   1.534       .  S
C833       C1308   1.536       .  S
C833       C1506   1.534       .  S
C834       C1254   1.530   1_554  S
C834       C1290   1.532       .  S
C834       C1346   1.534       .  S
N835        C840   1.356       .  A
N835        C839   1.356       .  A
N835        H867   1.040       .  S
N836        C843   1.354       .  A
N836        C844   1.356       .  A
N837        C842   1.356       .  A
N837        C841   1.354       .  A
N837        H868   1.039       .  S
N838        C845   1.353       .  A
N838        C846   1.350       .  A
C839        C847   1.390       .  A
C839        C855   1.422       .  A
C840        C856   1.414       .  A
C840        C848   1.384       .  A
C841        C849   1.386       .  A
C841        C858   1.416       .  A
C842        C857   1.420       .  A
C842        C850   1.388       .  A
C843        C855   1.417       .  A
C843        C851   1.386       .  A
C844        C858   1.420       .  A
C844        C852   1.387       .  A
C845        C853   1.387       .  A
C845        C856   1.414       .  A
C846        C854   1.385       .  A
C846        C857   1.410       .  A
C847        C848   1.374       .  A
C847        H859   1.081       .  S
C848        H860   1.082       .  S
C849        C850   1.376       .  A
C849        H861   1.083       .  S
C850        H862   1.082       .  S
C851        C852   1.375       .  A
C851        H863   1.082       .  S
C852        H864   1.081       .  S
C853        C854   1.372       .  A
C853        H865   1.081       .  S
C854        H866   1.083       .  S
C855       C1274   1.497       .  S
C856       C1220   1.494       .  S
C857       C1236   1.490       .  S
C858       C1256   1.497       .  S
C869       C1200   1.535       .  S
C869       C1238   1.532   1_554  S
C869       C1436   1.528       .  S
C870       C1166   1.527       .  S
C870       C1202   1.529       .  S
C870       C1490   1.531       .  S
C871       C1110   1.530       .  S
C871       C1130   1.535       .  S
C871       C1362   1.535       .  S
C872       C1092   1.533       .  S
C872       C1112   1.530       .  S
C872       C1398   1.535       .  S
N873        C878   1.355       .  A
N873        C877   1.355       .  A
N873        H905   1.038       .  S
N874        C881   1.355       .  A
N874        C882   1.354       .  A
N875        C880   1.356       .  A
N875        C879   1.354       .  A
N875        H906   1.038       .  S
N876        C883   1.352       .  A
N876        C884   1.354       .  A
C877        C885   1.386       .  A
C877        C893   1.416       .  A
C878        C894   1.420       .  A
C878        C886   1.388       .  A
C879        C887   1.387       .  A
C879        C896   1.420       .  A
C880        C895   1.417       .  A
C880        C888   1.387       .  A
C881        C893   1.417       .  A
C881        C889   1.386       .  A
C882        C896   1.416       .  A
C882        C890   1.386       .  A
C883        C891   1.386       .  A
C883        C894   1.415       .  A
C884        C892   1.387       .  A
C884        C895   1.417       .  A
C885        C886   1.374       .  A
C885        H897   1.082       .  S
C886        H898   1.082       .  S
C887        C888   1.375       .  A
C887        H899   1.082       .  S
C888        H900   1.082       .  S
C889        C890   1.374       .  A
C889        H901   1.082       .  S
C890        H902   1.082       .  S
C891        C892   1.372       .  A
C891        H903   1.082       .  S
C892        H904   1.081       .  S
C893       C1310   1.496       .  S
C894       C1094   1.491       .  S
C895       C1074   1.495       .  S
C896       C1328   1.495       .  S
N907        C912   1.356       .  A
N907        C911   1.354       .  A
N907        H939   1.040       .  S
N908        C915   1.355       .  A
N908        C916   1.354       .  A
N909        C914   1.355       .  A
N909        C913   1.356       .  A
N909        H940   1.040       .  S
N910        C917   1.352       .  A
N910        C918   1.354       .  A
C911        C919   1.386       .  A
C911        C927   1.416       .  A
C912        C928   1.420       .  A
C912        C920   1.388       .  A
C913        C921   1.388       .  A
C913        C930   1.420       .  A
C914        C929   1.416       .  A
C914        C922   1.386       .  A
C915        C927   1.418       .  A
C915        C923   1.387       .  A
C916        C930   1.415       .  A
C916        C924   1.385       .  A
C917        C925   1.385       .  A
C917        C928   1.413       .  A
C918        C926   1.387       .  A
C918        C929   1.417       .  A
C919        C920   1.377       .  A
C919        H931   1.082       .  S
C920        H932   1.082       .  S
C921        C922   1.377       .  A
C921        H933   1.082       .  S
C922        H934   1.082       .  S
C923        C924   1.372       .  A
C923        H935   1.081       .  S
C924        H936   1.082       .  S
C925        C926   1.373       .  A
C925        H937   1.082       .  S
C926        H938   1.081       .  S
C927       C1056   1.496       .  S
C928       C1128   1.495       .  S
C929       C1148   1.496       .  S
C930       C1038   1.499       .  S
C941       C1020   1.529       .  S
C941       C1058   1.532       .  S
C941       C1454   1.531       .  S
C942       C1002   1.531       .  S
C942       C1022   1.536       .  S
C942       C1382   1.538       .  S
N943        C948   1.355       .  A
N943        C947   1.355       .  A
N943        H975   1.038       .  S
N944        C951   1.354       .  A
N944        C952   1.355       .  A
N945        C950   1.356       .  A
N945        C949   1.356       .  A
N945        H976   1.038       .  S
N946        C953   1.352       .  A
N946        C954   1.352       .  A
C947        C955   1.388       .  A
C947        C963   1.420       .  A
C948        C964   1.415       .  A
C948        C956   1.386       .  A
C949        C957   1.388       .  A
C949        C966   1.420       .  A
C950        C965   1.419       .  A
C950        C958   1.386       .  A
C951        C963   1.416       .  A
C951        C959   1.386       .  A
C952        C966   1.419       .  A
C952        C960   1.387       .  A
C953        C961   1.386       .  A
C953        C964   1.413       .  A
C954        C962   1.387       .  A
C954        C965   1.412       .  A
C955        C956   1.374       .  A
C955        H967   1.082       .  S
C956        H968   1.082       .  S
C957        C958   1.374       .  A
C957        H969   1.082       .  S
C958        H970   1.082       .  S
C959        C960   1.370       .  A
C959        H971   1.082       .  S
C960        H972   1.081       .  S
C961        C962   1.370       .  A
C961        H973   1.082       .  S
C962        H974   1.082       .  S
C963        C986   1.493       .  S
C964       C1184   1.487       .  S
C965       C1164   1.490       .  S
C966       C1004   1.494       .  S
C977        C985   1.490       .  S
C977        C978   1.403       .  A
C977        C982   1.409       .  A
C978        C979   1.398       .  A
C978        H987   1.084       .  S
C979        C980   1.410       .  A
C979        H988   1.081       .  S
C980        C983   1.491       .  S
C980        C981   1.403       .  A
C981        C982   1.401       .  A
C981        H989   1.083       .  S
C982        H990   1.081       .  S
C983        H991   1.087       .  S
C983        C984   1.348       .  D
C984        H992   1.086       .  S
C985        H993   1.087       .  S
C985        C986   1.346       .  D
C986        H994   1.084       .  S
C995       C1003   1.496       .  S
C995        C996   1.406       .  A
C995       C1000   1.409       .  A
C996        C997   1.401       .  A
C996       H1005   1.083       .  S
C997        C998   1.408       .  A
C997       H1006   1.080       .  S
C998       C1001   1.494       .  S
C998        C999   1.405       .  A
C999       C1000   1.400       .  A
C999       H1007   1.084       .  S
C1000      H1008   1.079       .  S
C1001      H1009   1.087       .  S
C1001      C1002   1.353       .  D
C1002      H1010   1.084       .  S
C1003      H1011   1.087       .  S
C1003      C1004   1.349       .  D
C1004      H1012   1.082       .  S
C1013      C1014   1.404       .  A
C1013      C1018   1.409       .  A
C1014      C1015   1.400       .  A
C1015      C1016   1.407       .  A
C1015      H1024   1.082       .  S
C1016      C1019   1.488       .  S
C1016      C1017   1.403       .  A
C1017      C1018   1.401       .  A
C1017      H1025   1.083       .  S
C1018      H1026   1.081       .  S
C1019      H1027   1.087       .  S
C1019      C1020   1.348       .  D
C1020      H1028   1.086       .  S
C1021      H1029   1.086       .  S
C1021      C1022   1.353       .  D
C1022      H1030   1.085   1_556  S
C1031      C1039   1.496       .  S
C1031      C1032   1.406       .  A
C1031      C1036   1.410       .  A
C1032      C1033   1.404       .  A
C1032      H1041   1.083       .  S
C1033      C1034   1.408       .  A
C1033      H1042   1.082       .  S
C1034      C1037   1.490       .  S
C1034      C1035   1.402       .  A
C1035      C1036   1.398       .  A
C1035      H1043   1.084       .  S
C1036      H1044   1.081       .  S
C1037      H1045   1.087       .  S
C1037      C1038   1.348       .  D
C1038      H1046   1.085       .  S
C1039      H1047   1.087       .  S
C1039      C1040   1.350       .  D
C1040      H1048   1.085       .  S
C1049      C1057   1.492       .  S
C1049      C1050   1.403       .  A
C1049      C1054   1.410       .  A
C1050      C1051   1.397       .  A
C1050      H1059   1.083       .  S
C1051      C1052   1.407       .  A
C1051      H1060   1.082       .  S
C1052      C1055   1.493       .  S
C1052      C1053   1.406       .  A
C1053      C1054   1.405       .  A
C1053      H1061   1.083       .  S
C1054      H1062   1.081       .  S
C1055      H1063   1.087       .  S
C1055      C1056   1.350       .  D
C1056      H1064   1.085       .  S
C1057      H1065   1.088       .  S
C1057      C1058   1.351       .  D
C1058      H1066   1.085       .  S
C1067      C1075   1.497       .  S
C1067      C1068   1.407       .  A
C1067      C1072   1.408       .  A
C1068      C1069   1.402       .  A
C1068      H1077   1.083       .  S
C1069      C1070   1.408       .  A
C1069      H1078   1.080       .  S
C1070      C1073   1.495       .  S
C1070      C1071   1.405       .  A
C1071      C1072   1.400       .  A
C1071      H1079   1.083       .  S
C1072      H1080   1.079       .  S
C1073      H1081   1.088       .  S
C1073      C1074   1.349       .  D
C1074      H1082   1.083       .  S
C1075      H1083   1.087       .  S
C1075      C1076   1.355       .  D
C1076      H1084   1.083       .  S
C1085      C1093   1.485       .  S
C1085      C1086   1.402       .  A
C1085      C1090   1.407       .  A
C1086      C1087   1.398       .  A
C1086      H1095   1.084       .  S
C1087      C1088   1.410       .  A
C1087      H1096   1.080       .  S
C1088      C1091   1.493       .  S
C1088      C1089   1.405       .  A
C1089      C1090   1.400       .  A
C1089      H1097   1.083       .  S
C1090      H1098   1.082       .  S
C1091      H1099   1.084       .  S
C1091      C1092   1.350       .  D
C1092      H1100   1.084       .  S
C1093      H1101   1.087       .  S
C1093      C1094   1.345       .  D
C1094      H1102   1.086       .  S
C1103      C1108   1.407       .  A
C1104      C1105   1.403       .  A
C1104      H1113   1.083       .  S
C1105      H1114   1.082       .  S
C1106      C1109   1.489       .  S
C1106      C1107   1.404       .  A
C1107      C1108   1.398       .  A
C1107      H1115   1.084       .  S
C1108      H1116   1.082       .  S
C1109      H1117   1.087       .  S
C1110      H1118   1.086       .  S
C1111      H1119   1.087       .  S
C1111      C1112   1.348       .  D
C1121      C1129   1.490       .  S
C1121      C1122   1.403       .  A
C1121      C1126   1.407       .  A
C1122      C1123   1.402       .  A
C1122      H1131   1.083       .  S
C1123      C1124   1.411       .  A
C1123      H1132   1.080       .  S
C1124      C1127   1.494       .  S
C1124      C1125   1.404       .  A
C1125      C1126   1.398       .  A
C1125      H1133   1.083       .  S
C1126      H1134   1.082       .  S
C1127      H1135   1.087       .  S
C1127      C1128   1.348       .  D
C1128      H1136   1.083       .  S
C1129      H1137   1.083       .  S
C1129      C1130   1.348       .  D
C1130      H1138   1.086       .  S
C1139      C1147   1.492       .  S
C1139      C1140   1.404       .  A
C1139      C1144   1.407       .  A
C1140      C1141   1.403       .  A
C1140      H1149   1.083       .  S
C1141      C1142   1.410       .  A
C1141      H1150   1.079       .  S
C1142      C1145   1.495       .  S
C1142      C1143   1.405       .  A
C1143      C1144   1.399       .  A
C1143      H1151   1.083       .  S
C1144      H1152   1.082       .  S
C1145      H1153   1.087       .  S
C1145      C1146   1.353       .  D
C1146      H1154   1.083       .  S
C1147      H1155   1.087       .  S
C1147      C1148   1.349       .  D
C1148      H1156   1.085       .  S
C1157      C1165   1.492       .  S
C1157      C1158   1.404       .  A
C1157      C1162   1.409       .  A
C1158      C1159   1.400       .  A
C1158      H1167   1.083       .  S
C1159      C1160   1.409       .  A
C1159      H1168   1.081       .  S
C1160      C1163   1.488       .  S
C1160      C1161   1.402       .  A
C1161      C1162   1.398       .  A
C1161      H1169   1.083       .  S
C1162      H1170   1.080       .  S
C1163      H1171   1.087       .  S
C1163      C1164   1.345       .  D
C1164      H1172   1.084       .  S
C1165      H1173   1.087       .  S
C1165      C1166   1.349       .  D
C1166      H1174   1.084       .  S
C1175      C1183   1.481       .  S
C1175      C1176   1.406       .  A
C1175      C1180   1.401       .  A
C1176      C1177   1.400       .  A
C1176      H1185   1.083       .  S
C1177      C1178   1.406       .  A
C1177      H1186   1.082       .  S
C1178      C1181   1.482       .  S
C1178      C1179   1.404       .  A
C1179      C1180   1.398       .  A
C1179      H1187   1.083       .  S
C1180      H1188   1.083       .  S
C1181      H1189   1.087       .  S
C1181      C1182   1.349       .  D
C1182      H1190   1.086       .  S
C1183      H1191   1.087       .  S
C1183      C1184   1.344       .  D
C1184      H1192   1.086       .  S
C1193      C1201   1.492       .  S
C1193      C1194   1.405       .  A
C1193      C1198   1.408       .  A
C1194      C1195   1.402       .  A
C1194      H1203   1.083       .  S
C1195      H1204   1.081       .  S
C1196      C1199   1.492       .  S
C1196      C1197   1.405       .  A
C1197      H1205   1.083       .  S
C1199      H1207   1.084       .  S
C1199      C1200   1.351   1_556  D
C1201      H1209   1.087       .  S
C1202      H1210   1.086       .  S
C1211      C1219   1.492       .  S
C1211      C1212   1.405       .  A
C1211      C1216   1.407       .  A
C1212      C1213   1.402       .  A
C1212      H1221   1.083       .  S
C1213      C1214   1.410       .  A
C1213      H1222   1.080       .  S
C1214      C1217   1.493       .  S
C1214      C1215   1.404       .  A
C1215      C1216   1.398       .  A
C1215      H1223   1.083       .  S
C1216      H1224   1.081       .  S
C1217      H1225   1.087       .  S
C1217      C1218   1.351       .  D
C1218      H1226   1.084       .  S
C1219      H1227   1.087       .  S
C1219      C1220   1.349       .  D
C1220      H1228   1.084       .  S
C1229      C1237   1.491       .  S
C1229      C1230   1.402       .  A
C1229      C1234   1.408       .  A
C1230      C1231   1.402       .  A
C1230      H1239   1.083       .  S
C1231      C1232   1.412       .  A
C1231      H1240   1.080       .  S
C1232      C1235   1.492       .  S
C1232      C1233   1.403       .  A
C1233      C1234   1.398       .  A
C1233      H1241   1.083       .  S
C1234      H1242   1.082       .  S
C1235      H1243   1.087       .  S
C1235      C1236   1.345       .  D
C1236      H1244   1.083       .  S
C1237      H1245   1.083       .  S
C1237      C1238   1.346       .  D
C1238      H1246   1.087       .  S
C1247      C1255   1.494       .  S
C1247      C1248   1.402       .  A
C1247      C1252   1.409       .  A
C1248      C1249   1.399       .  A
C1248      H1257   1.084       .  S
C1249      C1250   1.413       .  A
C1249      H1258   1.078       .  S
C1250      C1253   1.503       .  S
C1250      C1251   1.407       .  A
C1251      C1252   1.404       .  A
C1251      H1259   1.083       .  S
C1252      H1260   1.082       .  S
C1253      H1261   1.087       .  S
C1253      C1254   1.351       .  D
C1254      H1262   1.082       .  S
C1255      H1263   1.087       .  S
C1255      C1256   1.347       .  D
C1256      H1264   1.085       .  S
C1265      C1273   1.494       .  S
C1265      C1266   1.405       .  A
C1265      C1270   1.411       .  A
C1266      C1267   1.398       .  A
C1266      H1275   1.083       .  S
C1267      C1268   1.407       .  A
C1267      H1276   1.082       .  S
C1268      C1271   1.491       .  S
C1268      C1269   1.404       .  A
C1269      C1270   1.403       .  A
C1269      H1277   1.083       .  S
C1270      H1278   1.080       .  S
C1271      H1279   1.084       .  S
C1271      C1272   1.351       .  D
C1272      H1280   1.086       .  S
C1273      H1281   1.087       .  S
C1273      C1274   1.349       .  D
C1274      H1282   1.083       .  S
C1283      C1291   1.493       .  S
C1283      C1284   1.404   1_556  A
C1283      C1288   1.410       .  A
C1284      C1285   1.398       .  A
C1284      H1293   1.083       .  S
C1285      C1286   1.407   1_554  A
C1285      H1294   1.082       .  S
C1286      C1289   1.490       .  S
C1286      C1287   1.404       .  A
C1287      C1288   1.404       .  A
C1287      H1295   1.083       .  S
C1288      H1296   1.081       .  S
C1289      H1297   1.086       .  S
C1289      C1290   1.350   1_556  D
C1290      H1298   1.086       .  S
C1291      H1299   1.087   1_556  S
C1292      H1300   1.085       .  S
C1301      C1309   1.495       .  S
C1301      C1302   1.406       .  A
C1301      C1306   1.407       .  A
C1302      C1303   1.406       .  A
C1302      H1311   1.083       .  S
C1303      C1304   1.410       .  A
C1303      H1312   1.080       .  S
C1304      C1307   1.496       .  S
C1304      C1305   1.404       .  A
C1305      C1306   1.398       .  A
C1305      H1313   1.083       .  S
C1306      H1314   1.082       .  S
C1307      H1315   1.087       .  S
C1307      C1308   1.351       .  D
C1308      H1316   1.084       .  S
C1309      H1317   1.087       .  S
C1309      C1310   1.349       .  D
C1310      H1318   1.085       .  S
C1319      C1327   1.489       .  S
C1319      C1320   1.405       .  A
C1319      C1324   1.408       .  A
C1320      C1321   1.400       .  A
C1320      H1329   1.083       .  S
C1321      C1322   1.406       .  A
C1321      H1330   1.082       .  S
C1322      C1325   1.487       .  S
C1322      C1323   1.404       .  A
C1323      C1324   1.402       .  A
C1323      H1331   1.083       .  S
C1324      H1332   1.082       .  S
C1325      H1333   1.087       .  S
C1325      C1326   1.350       .  D
C1326      H1334   1.087       .  S
C1327      H1335   1.087       .  S
C1327      C1328   1.348       .  D
C1328      H1336   1.085       .  S
C1337      C1342   1.407       .  A
C1338      C1339   1.405       .  A
C1338      H1347   1.083       .  S
C1339      H1348   1.080       .  S
C1340      C1343   1.496       .  S
C1340      C1341   1.404       .  A
C1341      C1342   1.397       .  A
C1341      H1349   1.083   1_554  S
C1342      H1350   1.082   1_554  S
C1343      H1351   1.087       .  S
C1343      C1344   1.349       .  D
C1345      H1353   1.086       .  S
C1346      H1354   1.087   1_554  S
C1355      C1363   1.500       .  S
C1355      C1356   1.407   1_554  A
C1355      C1360   1.412       .  A
C1356      C1357   1.402       .  A
C1356      H1365   1.083       .  S
C1357      H1366   1.082       .  S
C1358      C1361   1.495       .  S
C1358      C1359   1.404       .  A
C1359      H1367   1.084       .  S
C1361      H1369   1.083       .  S
C1361      C1362   1.350       .  D
C1363      H1371   1.087   1_554  S
C1363      C1364   1.348       .  D
C1373      C1381   1.496       .  S
C1373      C1374   1.405       .  A
C1374      C1375   1.401       .  A
C1374      H1383   1.083       .  S
C1375      H1384   1.081       .  S
C1376      C1379   1.496       .  S
C1376      C1377   1.405       .  A
C1377      C1378   1.401       .  A
C1377      H1385   1.083       .  S
C1378      H1386   1.081       .  S
C1379      H1387   1.087       .  S
C1379      C1380   1.347   1_556  D
C1381      H1389   1.084       .  S
C1382      H1390   1.084       .  S
C1391      C1396   1.410       .  A
C1392      C1393   1.402       .  A
C1392      H1401   1.083       .  S
C1393      H1402   1.080       .  S
C1394      C1397   1.493       .  S
C1394      C1395   1.405       .  A
C1395      C1396   1.402       .  A
C1395      H1403   1.083       .  S
C1396      H1404   1.079       .  S
C1397      H1405   1.085       .  S
C1397      C1398   1.354       .  D
C1399      H1407   1.087       .  S
C1399      C1400   1.352   1_556  D
C1409      C1417   1.492       .  S
C1409      C1414   1.404       .  A
C1410      H1419   1.080   1_554  S
C1411      C1412   1.412       .  A
C1412      C1415   1.496       .  S
C1412      C1413   1.404       .  A
C1413      C1414   1.398       .  A
C1413      H1421   1.083       .  S
C1414      H1422   1.083       .  S
C1415      H1423   1.087       .  S
C1416      H1424   1.082   1_554  S
C1427      C1435   1.485   1_554  S
C1427      C1428   1.403   1_554  A
C1428      C1429   1.404       .  A
C1428      H1437   1.083       .  S
C1429      H1438   1.082       .  S
C1430      C1433   1.485       .  S
C1430      C1431   1.402       .  A
C1431      C1432   1.395       .  A
C1431      H1439   1.084       .  S
C1432      H1440   1.083       .  S
C1433      H1441   1.087       .  S
C1434      H1442   1.085       .  S
C1435      H1443   1.086       .  S
C1435      C1436   1.348   1_556  D
C1445      C1450   1.408   1_554  A
C1446      C1447   1.401       .  A
C1446      H1455   1.083       .  S
C1447      H1456   1.081       .  S
C1448      C1451   1.496       .  S
C1448      C1449   1.406   1_554  A
C1449      C1450   1.403       .  A
C1449      H1457   1.083       .  S
C1450      H1458   1.081       .  S
C1451      H1459   1.087   1_554  S
C1452      H1460   1.084       .  S
C1453      H1461   1.087       .  S
C1453      C1454   1.349       .  D
C1454      H1462   1.085       .  S
C1463      C1471   1.489       .  S
C1463      C1464   1.403       .  A
C1464      C1465   1.398       .  A
C1464      H1473   1.083       .  S
C1465      H1474   1.080       .  S
C1466      C1469   1.494       .  S
C1466      C1467   1.403   1_554  A
C1467      C1468   1.399       .  A
C1467      H1475   1.083       .  S
C1468      H1476   1.080       .  S
C1469      H1477   1.087   1_554  S
C1470      H1478   1.083       .  S
C1471      H1479   1.087       .  S
C1472      H1480   1.083       .  S
C1481      C1486   1.407       .  A
C1482      C1483   1.399       .  A
C1482      H1491   1.083       .  S
C1483      H1492   1.081       .  S
C1484      C1487   1.491       .  S
C1484      C1485   1.405       .  A
C1485      C1486   1.401       .  A
C1485      H1493   1.083       .  S
C1486      H1494   1.082       .  S
C1487      H1495   1.087       .  S
C1488      H1496   1.084       .  S
C1489      H1497   1.087   1_556  S
C1489      C1490   1.348       .  D
C1490      H1498   1.086       .  S
C1499      C1507   1.495       .  S
C1499      C1500   1.405       .  A
C1499      C1504   1.408       .  A
C1500      C1501   1.401       .  A
C1500      H1509   1.083       .  S
C1501      C1502   1.409       .  A
C1501      H1510   1.079       .  S
C1502      C1505   1.498       .  S
C1502      C1503   1.406       .  A
C1503      C1504   1.402       .  A
C1503      H1511   1.083       .  S
C1504      H1512   1.081       .  S
C1505      H1513   1.087       .  S
C1505      C1506   1.352       .  D
C1506      H1514   1.083       .  S
C1507      H1515   1.087       .  S
C1507      C1508   1.350       .  D
C1508      H1516   1.084       .  S
C1517      C1525   1.498       .  S
C1517      C1518   1.406       .  A
C1517      C1522   1.410   1_556  A
C1518      C1519   1.402       .  A
C1518      H1527   1.083       .  S
C1519      C1520   1.408   1_556  A
C1519      H1528   1.081       .  S
C1520      C1523   1.496       .  S
C1520      C1521   1.405       .  A
C1521      C1522   1.403       .  A
C1521      H1529   1.083       .  S
C1522      H1530   1.080       .  S
C1525      H1533   1.087       .  S
C1525      C1526   1.350   1_556  D
C1535      C1543   1.489       .  S
C1535      C1536   1.404   1_554  A
C1536      C1537   1.402       .  A
C1536      H1545   1.083       .  S
C1537      H1546   1.081       .  S
C1538      C1541   1.491       .  S
C1538      C1539   1.404       .  A
C1539      C1540   1.397       .  A
C1539      H1547   1.084       .  S
C1540      H1548   1.082       .  S
C1541      H1549   1.087       .  S
C1541      C1542   1.347       .  D
C1543      H1551   1.087   1_554  S
C1543      C1544   1.345       .  D
