geometry optimzed in LAMMPS
_audit_creation_date              2020-12-01 
_audit_creation_method            'lammps2cif' 
_symmetry_space_group_name_H-M    'P1' 
_symmetry_Int_Tables_number       1 
_symmetry_cell_setting            triclinic 
loop_ 
_symmetry_equiv_pos_as_xyz 
  x,y,z 
_cell_length_a                    25.89664647 
_cell_length_b                    25.91512526260918 
_cell_length_c                    25.117889248301843 
_cell_angle_alpha                 90.0938499416133 
_cell_angle_beta                  90.12886049993037 
_cell_angle_gamma                 89.79304067760661 
loop_ 
_atom_site_label 
_atom_site_type_symbol 
_atom_site_fract_x 
_atom_site_fract_y 
_atom_site_fract_z 
_atom_site_charge 
N1          N  0.44232551  0.83934633  0.05828828    -0.36500
N2          N  0.55580910  0.83221784  0.05940954    -0.57100
N3          N  0.55603419  0.83700254  0.94549925    -0.36500
N4          N  0.44319332  0.83956295  0.94445768    -0.57100
C5          C  0.45299330  0.82220140  0.10791132     0.27000
C6          C  0.39325196  0.82515164  0.04658317     0.27000
C7          C  0.60445421  0.81987695  0.95603010     0.27000
C8          C  0.54433778  0.82275719  0.89507161     0.27000
C9          C  0.54563162  0.84390175  0.11078471     0.35700
C10         C  0.60625559  0.84321641  0.05120390     0.35700
C11         C  0.39393331  0.85433663  0.95350611     0.35700
C12         C  0.45411889  0.85305918  0.89393822     0.35700
C13         C  0.41068531  0.79651282  0.12818466    -0.21800
C14         C  0.37321825  0.79761509  0.08925388    -0.21800
C15         C  0.62306148  0.79325095  0.91191463    -0.21800
C16         C  0.58527156  0.79561257  0.87327540    -0.21800
C17         C  0.58942429  0.86272005  0.13553163    -0.22900
C18         C  0.62772285  0.86283142  0.09779507    -0.22900
C19         C  0.37413465  0.87903223  0.90877756    -0.22900
C20         C  0.41218545  0.87750633  0.87074208    -0.22900
C21         C  0.49857528  0.83310337  0.13651998    -0.18200
C22         C  0.36618411  0.83968814  0.99953810    -0.18200
C23         C  0.49936531  0.83790687  0.86730130    -0.18200
C24         C  0.63275858  0.83167246  0.00305985    -0.18200
H25         H  0.40726738  0.77870433  0.16696261     0.14700
H26         H  0.33587163  0.77954882  0.09256919     0.14700
H27         H  0.65987748  0.77388575  0.90762008     0.14700
H28         H  0.58776181  0.77954190  0.83355435     0.14700
H29         H  0.59342155  0.87483287  0.17659577     0.13000
H30         H  0.66656178  0.87617877  0.10483018     0.13000
H31         H  0.33633710  0.89612026  0.90344124     0.13000
H32         H  0.40917476  0.89202746  0.83046338     0.13000
H33         H  0.46533912  0.86441451  0.03634285     0.26200
H34         H  0.53463259  0.86251694  0.96886183     0.26200
N35         N  0.55390611  0.82434927  0.44524241    -0.36500
N36         N  0.44074123  0.82553186  0.44456851    -0.57100
N37         N  0.44041931  0.82402965  0.55888883    -0.36500
N38         N  0.55363980  0.82851997  0.55949694    -0.57100
C39         C  0.54242901  0.83796164  0.39462694     0.27000
C40         C  0.60244056  0.84094021  0.45570371     0.27000
C41         C  0.39137667  0.83911779  0.54799728     0.27000
C42         C  0.45125325  0.83895526  0.60925850     0.27000
C43         C  0.45130691  0.81097313  0.39411205     0.35700
C44         C  0.39118277  0.81211728  0.45390381     0.35700
C45         C  0.60380404  0.81659227  0.55057640     0.35700
C46         C  0.54361594  0.81534743  0.61044393     0.35700
C47         C  0.58371303  0.86390580  0.37248146    -0.21800
C48         C  0.62137040  0.86647616  0.41121307    -0.21800
C49         C  0.37140070  0.86492849  0.59200854    -0.21800
C50         C  0.40898458  0.86408990  0.63088272    -0.21800
C51         C  0.40879828  0.78753935  0.37125134    -0.22900
C52         C  0.37081464  0.78763990  0.40932766    -0.22900
C53         C  0.62515714  0.79457655  0.59607784    -0.22900
C54         C  0.58716612  0.79450189  0.63412283    -0.22900
C55         C  0.49708049  0.82368821  0.36715947    -0.18200
C56         C  0.63044329  0.82962099  0.50306464    -0.18200
C57         C  0.49709712  0.82676395  0.63699956    -0.18200
C58         C  0.36397900  0.82622540  0.50070898    -0.18200
H59         H  0.58640632  0.87931879  0.33256035     0.14700
H60         H  0.65821781  0.88539265  0.40663055     0.14700
H61         H  0.33391687  0.88294463  0.59618241     0.14700
H62         H  0.40563773  0.88020416  0.67051648     0.14700
H63         H  0.40546638  0.77233614  0.33122730     0.13000
H64         H  0.33282924  0.77132110  0.40419036     0.13000
H65         H  0.66369955  0.77948405  0.60187463     0.13000
H66         H  0.59112937  0.78080438  0.67462662     0.13000
H67         H  0.53203817  0.79969095  0.46890437     0.26200
H68         H  0.46326440  0.79958846  0.53572485     0.26200
N69         N  0.78624591  0.48600422  0.05624996    -0.36500
N70         N  0.79187915  0.59925893  0.05444413    -0.57100
N71         N  0.78122416  0.59723400  0.94045722    -0.36500
N72         N  0.78101722  0.48388909  0.94254975    -0.57100
C73         C  0.80506271  0.49784261  0.10497121     0.27000
C74         C  0.79942072  0.43638791  0.04584812     0.27000
C75         C  0.79703484  0.64638922  0.94896927     0.27000
C76         C  0.79303050  0.58485276  0.88960619     0.27000
C77         C  0.78070981  0.58973119  0.10604758     0.35700
C78         C  0.77715342  0.64853637  0.04478789     0.35700
C79         C  0.76788126  0.43449629  0.95321832     0.35700
C80         C  0.76634052  0.49331840  0.89186055     0.35700
C81         C  0.83108140  0.45573005  0.12581489    -0.21800
C82         C  0.82808109  0.41704615  0.08827723    -0.21800
C83         C  0.82005095  0.66497467  0.90293751    -0.21800
C84         C  0.81704139  0.62627040  0.86538648    -0.21800
C85         C  0.75836341  0.63265027  0.12937677    -0.22900
C86         C  0.75538813  0.66971400  0.09046195    -0.22900
C87         C  0.74340295  0.41302141  0.90917993    -0.22900
C88         C  0.74318295  0.45011055  0.87009844    -0.22900
C89         C  0.79388685  0.54379046  0.13287218    -0.18200
C90         C  0.78300454  0.40817866  0.00034939    -0.18200
C91         C  0.77886071  0.53857559  0.86368855    -0.18200
C92         C  0.78751267  0.67487153  0.99637501    -0.18200
H93         H  0.84973220  0.45303485  0.16432412     0.14700
H94         H  0.84538359  0.37922483  0.09224331     0.14700
H95         H  0.83764266  0.70220460  0.89658606     0.14700
H96         H  0.83081619  0.62842139  0.82479426     0.14700
H97         H  0.74524742  0.63666825  0.17006533     0.13000
H98         H  0.73834252  0.70750968  0.09566815     0.13000
H99         H  0.72743227  0.37475136  0.90496523     0.13000
H100        H  0.72820961  0.44566598  0.83008757     0.13000
H101        H  0.76031971  0.50854134  0.03450049     0.26200
H102        H  0.75828277  0.57537645  0.96585966     0.26200
N103        N  0.77988859  0.59813211  0.55656829    -0.36500
N104        N  0.79408648  0.60044326  0.44275849    -0.57100
N105        N  0.78788878  0.48725925  0.44025856    -0.36500
N106        N  0.77929086  0.48522104  0.55390410    -0.57100
C107        C  0.79608861  0.64714249  0.54856402     0.27000
C108        C  0.79082924  0.58562025  0.60761162     0.27000
C109        C  0.80807900  0.49869019  0.39216008     0.27000
C110        C  0.79960542  0.43733924  0.45084565     0.27000
C111        C  0.77820482  0.64942235  0.45225121     0.35700
C112        C  0.78439408  0.59080950  0.39076402     0.35700
C113        C  0.76310171  0.49469094  0.60404047     0.35700
C114        C  0.76524688  0.43628907  0.54224829     0.35700
C115        C  0.81864211  0.66549795  0.59515588    -0.21800
C116        C  0.81480369  0.62679975  0.63251016    -0.21800
C117        C  0.83348606  0.45588725  0.37189438    -0.21800
C118        C  0.82861625  0.41722420  0.40916131    -0.21800
C119        C  0.75720539  0.67029020  0.40600666    -0.22900
C120        C  0.76186134  0.63337668  0.36698625    -0.22900
C121        C  0.73797011  0.45207234  0.62437683    -0.22900
C122        C  0.73857351  0.41524151  0.58492601    -0.22900
C123        C  0.78693021  0.67574420  0.50117923    -0.18200
C124        C  0.77551306  0.53955664  0.63296914    -0.18200
C125        C  0.78167105  0.40963064  0.49585324    -0.18200
C126        C  0.79886425  0.54501433  0.36418628    -0.18200
H127        H  0.83646350  0.70256176  0.60204312     0.14700
H128        H  0.82787368  0.62884546  0.67342446     0.14700
H129        H  0.85298515  0.45275038  0.33394595     0.14700
H130        H  0.84477372  0.37885416  0.40554726     0.14700
H131        H  0.73948171  0.70770234  0.40040762     0.13000
H132        H  0.74968009  0.63724646  0.32593144     0.13000
H133        H  0.72131798  0.44791561  0.66362142     0.13000
H134        H  0.72158713  0.37730412  0.58792874     0.13000
H135        H  0.75702426  0.57653579  0.53051903     0.26200
H136        H  0.76205215  0.51044298  0.46146845     0.26200
N137        N  0.44188635  0.24442252  0.05547746    -0.36500
N138        N  0.55506185  0.23981251  0.05843912    -0.57100
N139        N  0.55609581  0.24662573  0.94421211    -0.36500
N140        N  0.44296773  0.24614503  0.94182708    -0.57100
C141        C  0.45203559  0.22665900  0.10499046     0.27000
C142        C  0.39261213  0.23148275  0.04351353     0.27000
C143        C  0.60521510  0.23203068  0.95526676     0.27000
C144        C  0.54584154  0.23224830  0.89352318     0.27000
C145        C  0.54339068  0.25208645  0.10931778     0.35700
C146        C  0.60419187  0.25548951  0.05023097     0.35700
C147        C  0.39342640  0.26061577  0.95028112     0.35700
C148        C  0.45422823  0.25884112  0.89109771     0.35700
C149        C  0.40928145  0.20112956  0.12460597    -0.21800
C150        C  0.37186154  0.20365197  0.08558463    -0.21800
C151        C  0.62585392  0.20688367  0.91121412    -0.21800
C152        C  0.58849646  0.20755931  0.87208630    -0.21800
C153        C  0.58487223  0.27592187  0.13369612    -0.22900
C154        C  0.62322360  0.27873708  0.09613782    -0.22900
C155        C  0.37367002  0.28382708  0.90467670    -0.22900
C156        C  0.41201179  0.28185937  0.86695579    -0.22900
C157        C  0.49672889  0.23890353  0.13456008    -0.18200
C158        C  0.36572110  0.24813543  0.99721547    -0.18200
C159        C  0.50040095  0.24486976  0.86523950    -0.18200
C160        C  0.63207321  0.24514424  0.00273748    -0.18200
H161        H  0.40520925  0.18344147  0.16337200     0.14700
H162        H  0.33379033  0.18688945  0.08838817     0.14700
H163        H  0.66368752  0.18955037  0.90723052     0.14700
H164        H  0.59238168  0.19195923  0.83228650     0.14700
H165        H  0.58705093  0.29026582  0.17413485     0.13000
H166        H  0.66028473  0.29678679  0.10239741     0.13000
H167        H  0.33585343  0.30052213  0.89846971     0.13000
H168        H  0.40913303  0.29556196  0.82636227     0.13000
H169        H  0.46494783  0.26999618  0.03421799     0.26200
H170        H  0.53306933  0.27063385  0.96761314     0.26200
N171        N  0.55147420  0.24750408  0.55663828    -0.36500
N172        N  0.55109636  0.24569331  0.44300027    -0.57100
N173        N  0.43776214  0.24494978  0.44364688    -0.36500
N174        N  0.43792083  0.24139371  0.55768926    -0.57100
C175        C  0.60129434  0.23534715  0.54593959     0.27000
C176        C  0.54139962  0.23139623  0.60662774     0.27000
C177        C  0.44930692  0.22879069  0.39381572     0.27000
C178        C  0.38897864  0.22945316  0.45434103     0.27000
C179        C  0.59981969  0.26210771  0.45206137     0.35700
C180        C  0.53965790  0.25805975  0.39215625     0.35700
C181        C  0.44848256  0.25334437  0.60896416     0.35700
C182        C  0.38788311  0.25441648  0.54902957     0.35700
C183        C  0.62260033  0.20992993  0.58949993    -0.21800
C184        C  0.58489672  0.20808644  0.62804764    -0.21800
C185        C  0.40790681  0.20201892  0.37266912    -0.21800
C186        C  0.36997289  0.20196172  0.41098323    -0.21800
C187        C  0.61877617  0.28632616  0.40684209    -0.22900
C188        C  0.58080881  0.28305246  0.36866348    -0.22900
C189        C  0.40532050  0.27411161  0.63326689    -0.22900
C190        C  0.36714809  0.27560549  0.59524491    -0.22900
C191        C  0.62786529  0.25042009  0.49912282    -0.18200
C192        C  0.49569153  0.24253675  0.63481147    -0.18200
C193        C  0.36095384  0.24313345  0.50092766    -0.18200
C194        C  0.49455810  0.24182034  0.36571257    -0.18200
H195        H  0.66111997  0.19419797  0.59361619     0.14700
H196        H  0.58912756  0.19193284  0.66754096     0.14700
H197        H  0.40522266  0.18459939  0.33356701     0.14700
H198        H  0.33296320  0.18316743  0.40702127     0.14700
H199        H  0.65586284  0.30453686  0.40134529     0.13000
H200        H  0.58327874  0.29704670  0.32817197     0.13000
H201        H  0.40184842  0.28723889  0.67404393     0.13000
H202        H  0.32904655  0.29139881  0.60172138     0.13000
H203        H  0.52762090  0.27136722  0.53392408     0.26200
H204        H  0.45964177  0.27048695  0.46646235     0.26200
N205        N  0.21025198  0.48257942  0.93718825    -0.36500
N206        N  0.21476939  0.59688674  0.93311286    -0.57100
N207        N  0.21624610  0.59964162  0.04711860    -0.36500
N208        N  0.21061093  0.48598104  0.05124372    -0.57100
C209        C  0.19865958  0.49153615  0.88546898     0.27000
C210        C  0.19647901  0.43310194  0.94766160     0.27000
C211        C  0.23126820  0.64854674  0.03607231     0.27000
C212        C  0.23103723  0.58962337  0.09783853     0.27000
C213        C  0.21653246  0.58616739  0.88041268     0.35700
C214        C  0.21932180  0.64883283  0.93815537     0.35700
C215        C  0.19933731  0.43529529  0.04612301     0.35700
C216        C  0.20461007  0.49777254  0.10323561     0.35700
C217        C  0.17708068  0.44785860  0.86294869    -0.21800
C218        C  0.17496743  0.41138675  0.90213070    -0.21800
C219        C  0.25700564  0.66880230  0.07994327    -0.21800
C220        C  0.25631959  0.63190367  0.11895595    -0.21800
C221        C  0.22354255  0.63102650  0.85175870    -0.22900
C222        C  0.22510746  0.67053405  0.88781902    -0.22900
C223        C  0.18393284  0.41575898  0.09512729    -0.22900
C224        C  0.18766820  0.45518086  0.13112817    -0.22900
C225        C  0.20818888  0.53731108  0.85687415    -0.18200
C226        C  0.20128931  0.40736493  0.99741609    -0.18200
C227        C  0.21944739  0.54468233  0.12697389    -0.18200
C228        C  0.22177472  0.67567335  0.98784537    -0.18200
H229        H  0.16290627  0.44314248  0.82266043     0.14700
H230        H  0.15676203  0.37419368  0.89752052     0.14700
H231        H  0.27589543  0.70575526  0.08345601     0.14700
H232        H  0.27290720  0.63564632  0.15836648     0.14700
H233        H  0.22699347  0.63513137  0.80903306     0.13000
H234        H  0.23260035  0.70983400  0.87644269     0.13000
H235        H  0.16888586  0.37813614  0.10470548     0.13000
H236        H  0.17902756  0.45266601  0.17319195     0.13000
H237        H  0.23101618  0.50726868  0.96186397     0.26200
H238        H  0.19220088  0.57656951  0.02389975     0.26200
N239        N  0.21675031  0.59270721  0.43771198    -0.36500
N240        N  0.21226511  0.59008023  0.55173134    -0.57100
N241        N  0.20458790  0.47709530  0.54709464    -0.36500
N242        N  0.21041176  0.47905595  0.43296890    -0.57100
C243        C  0.22919359  0.64247855  0.44861996     0.27000
C244        C  0.23030742  0.58357468  0.38652650     0.27000
C245        C  0.18961615  0.48735577  0.59762527     0.27000
C246        C  0.18780608  0.42891200  0.53541075     0.27000
C247        C  0.22246084  0.64096884  0.54682144     0.35700
C248        C  0.21693581  0.57876435  0.60396105     0.35700
C249        C  0.20938066  0.48971763  0.38029140     0.35700
C250        C  0.20201224  0.42768418  0.43799373     0.35700
C251        C  0.25201305  0.66429880  0.40404770    -0.21800
C252        C  0.25232508  0.62738354  0.36496343    -0.21800
C253        C  0.16226108  0.44612585  0.61790687    -0.21800
C254        C  0.16038813  0.40957739  0.57845587    -0.21800
C255        C  0.23568154  0.66124055  0.59633644    -0.22900
C256        C  0.23182440  0.62196257  0.63234406    -0.22900
C257        C  0.19903787  0.44537280  0.35160359    -0.22900
C258        C  0.19445764  0.40622882  0.38774025    -0.22900
C259        C  0.22143666  0.66846377  0.49791900    -0.18200
C260        C  0.22020674  0.53817746  0.35712850    -0.18200
C261        C  0.19771011  0.40133999  0.48759645    -0.18200
C262        C  0.20270601  0.53158939  0.62723755    -0.18200
H263        H  0.26884167  0.70213962  0.40004213     0.14700
H264        H  0.26741837  0.63218827  0.32512618     0.14700
H265        H  0.14499270  0.44295932  0.65697006     0.14700
H266        H  0.13996215  0.37334860  0.58114534     0.14700
H267        H  0.24939132  0.69932617  0.60633565     0.13000
H268        H  0.23885389  0.62504338  0.67473278     0.13000
H269        H  0.19478363  0.44145286  0.30891375     0.13000
H270        H  0.18352120  0.36756293  0.37675107     0.13000
H271        H  0.19491645  0.56824334  0.46139690     0.26200
H272        H  0.23006225  0.49917805  0.52469534     0.26200
O273        O  0.71395830  0.83477498  0.95634458    -0.74400
O274        O  0.86211929  0.83128636  0.95089027    -0.74400
O275        O  0.78583025  0.75824083  0.95234678    -0.74500
O276        O  0.78951179  0.90669506  0.95508387    -0.74500
O277        O  0.78912445  0.90465363  0.04374946    -0.74400
O278        O  0.79385125  0.75712004  0.04027402    -0.74400
O279        O  0.86509906  0.83264447  0.03959023    -0.74400
O280        O  0.71721711  0.82825412  0.04432602    -0.74500
Ni281      Ni  0.78782717  0.83270782  0.95043341     1.25400
Ni282      Ni  0.79139617  0.83067346  0.04507024     1.25400
C283        C  0.69079791  0.83147522  0.00125463     0.87800
C284        C  0.88800407  0.83244111  0.99446160     0.87700
C285        C  0.78928505  0.73289123  0.99609637     0.87800
C286        C  0.78899061  0.93012467  0.00007740     0.87900
O287        O  0.71322301  0.82972500  0.45880713    -0.74400
O288        O  0.86115149  0.83452119  0.45875607    -0.74400
O289        O  0.79025985  0.75885451  0.45859539    -0.74500
O290        O  0.78507493  0.90659614  0.45893716    -0.74500
O291        O  0.78862268  0.90652907  0.54757680    -0.74400
O292        O  0.78478101  0.75829951  0.54665874    -0.74400
O293        O  0.86105419  0.83048712  0.54733791    -0.74400
O294        O  0.71315081  0.83487043  0.54695493    -0.74500
Ni295      Ni  0.78734763  0.83255476  0.45563303     1.25400
Ni296      Ni  0.78699328  0.83252985  0.55032306     1.25400
C297        C  0.68841342  0.83166393  0.50289518     0.87800
C298        C  0.88555385  0.83249983  0.50310610     0.87700
C299        C  0.78740049  0.73377221  0.50233377     0.87800
C300        C  0.78640501  0.93101693  0.50334574     0.87900
O301        O  0.78752091  0.32525745  0.95734192    -0.74400
O302        O  0.79038794  0.17754074  0.95859765    -0.74400
O303        O  0.71448736  0.25056398  0.95837974    -0.74500
O304        O  0.86248773  0.25286267  0.95767299    -0.74500
O305        O  0.86264347  0.25654479  0.04631729    -0.74400
O306        O  0.71496901  0.24660501  0.04660240    -0.74400
O307        O  0.79356087  0.17815431  0.04729227    -0.74400
O308        O  0.78320469  0.32595839  0.04560526    -0.74500
Ni309      Ni  0.78861243  0.25146639  0.95486197     1.25400
Ni310      Ni  0.78865934  0.25195569  0.04963887     1.25400
C311        C  0.78446919  0.35030679  0.00118731     0.87800
C312        C  0.79334298  0.15349490  0.00305367     0.87700
C313        C  0.68999116  0.24750849  0.00256988     0.87800
C314        C  0.88698004  0.25580816  0.00190555     0.87900
O315        O  0.71102549  0.25569139  0.54242538    -0.74400
O316        O  0.85904865  0.25217737  0.53998796    -0.74400
O317        O  0.78661238  0.32769911  0.54009722    -0.74500
O318        O  0.78427548  0.18002454  0.54280608    -0.74500
O319        O  0.78688536  0.17839564  0.45416971    -0.74400
O320        O  0.77994852  0.32657518  0.45189317    -0.74400
O321        O  0.85740243  0.25488575  0.45130750    -0.74400
O322        O  0.70979275  0.24893936  0.45430525    -0.74500
Ni323      Ni  0.78522648  0.25401409  0.54448949     1.25400
Ni324      Ni  0.78343708  0.25229224  0.44973327     1.25400
C325        C  0.68570931  0.25185385  0.49866920     0.87800
C326        C  0.88258572  0.25231076  0.49517822     0.87700
C327        C  0.78274450  0.35180997  0.49580276     0.87800
C328        C  0.78683989  0.15477849  0.49897301     0.87900
O329        O  0.20772526  0.32517769  0.04242448    -0.74400
O330        O  0.21149069  0.17771845  0.04463983    -0.74400
O331        O  0.28383724  0.25315328  0.04226033    -0.74500
O332        O  0.13587616  0.25014853  0.04468431    -0.74500
O333        O  0.13441679  0.25082376  0.95601375    -0.74400
O334        O  0.28242481  0.24878049  0.95401040    -0.74400
O335        O  0.20821191  0.17653919  0.95592934    -0.74400
O336        O  0.20846287  0.32400954  0.95439743    -0.74500
Ni337      Ni  0.20987854  0.25159645  0.04664994     1.25400
Ni338      Ni  0.20839668  0.25010408  0.95192542     1.25400
C339        C  0.20552666  0.34934600  0.99813751     0.87800
C340        C  0.21055653  0.15285449  0.00054627     0.87700
C341        C  0.30784900  0.25031071  0.99777525     0.87800
C342        C  0.11068655  0.25006930  0.00072582     0.87900
O343        O  0.27919262  0.24399958  0.45419306    -0.74400
O344        O  0.13102539  0.24260459  0.44951237    -0.74400
O345        O  0.20361706  0.31639409  0.44791857    -0.74500
O346        O  0.20587675  0.16903377  0.45542360    -0.74500
O347        O  0.20210518  0.17282856  0.54393286    -0.74400
O348        O  0.20328362  0.32068876  0.53588130    -0.74400
O349        O  0.12906015  0.24778322  0.53809643    -0.74400
O350        O  0.27681527  0.24503218  0.54236736    -0.74500
Ni351      Ni  0.20513179  0.24272718  0.44864367     1.25400
Ni352      Ni  0.20282341  0.24680756  0.54322250     1.25400
C353        C  0.30283743  0.24412897  0.49912149     0.87800
C354        C  0.10570879  0.24622081  0.49313334     0.87700
C355        C  0.20126380  0.34330734  0.49047085     0.87800
C356        C  0.20423971  0.14650953  0.50078337     0.87900
O357        O  0.28268551  0.83577104  0.04115592    -0.74400
O358        O  0.13539762  0.82660324  0.03766711    -0.74400
O359        O  0.21389042  0.75678237  0.03561359    -0.74500
O360        O  0.20463415  0.90446567  0.04229864    -0.74500
O361        O  0.20816083  0.90747749  0.95372477    -0.74400
O362        O  0.21381817  0.76029969  0.94769213    -0.74400
O363        O  0.13652734  0.83170574  0.94914590    -0.74400
O364        O  0.28468501  0.83591186  0.95286834    -0.74500
Ni365      Ni  0.20900737  0.83066327  0.04232243     1.25400
Ni366      Ni  0.21074136  0.83398410  0.94770949     1.25400
C367        C  0.30837335  0.83710458  0.99773019     0.87800
C368        C  0.11155113  0.82809910  0.99300409     0.87700
C369        C  0.21672905  0.73376762  0.99039483     0.87800
C370        C  0.20549655  0.93030195  0.99889234     0.87900
O371        O  0.21228000  0.75142331  0.45451810    -0.74400
O372        O  0.20308776  0.89896254  0.45677353    -0.74400
O373        O  0.28136729  0.82941914  0.45615362    -0.74500
O374        O  0.13347020  0.82148775  0.45532396    -0.74500
O375        O  0.13357636  0.82194922  0.54397280    -0.74400
O376        O  0.28128500  0.82519003  0.54437860    -0.74400
O377        O  0.20477189  0.89793558  0.54539527    -0.74400
O378        O  0.21026780  0.75036818  0.54254977    -0.74500
Ni379      Ni  0.20746439  0.82533699  0.45251394     1.25400
Ni380      Ni  0.20739501  0.82390195  0.54718987     1.25400
C381        C  0.21488346  0.72626706  0.49833082     0.87800
C382        C  0.20213564  0.92286391  0.50141623     0.87700
C383        C  0.30606125  0.82722796  0.50037848     0.87800
C384        C  0.10905175  0.82104494  0.49964797     0.87900
C385        C  0.20370579  0.08933708  0.50268058    -0.06100
C386        C  0.17807834  0.06274544  0.46173304    -0.17200
C387        C  0.17496653  0.00887386  0.46138476     0.07100
C388        C  0.19925179  0.98005462  0.50228674    -0.06000
C389        C  0.22393926  0.00667744  0.54389251    -0.17200
C390        C  0.22705176  0.06063463  0.54420766     0.11200
S391        S  0.13739429  0.97981036  0.40882890    -0.32200
S392        S  0.26449619  0.08992622  0.59667787    -0.32200
H393        H  0.28863743  0.12603431  0.56323722     0.29200
H394        H  0.11474815  0.94233873  0.44179591     0.29200
H395        H  0.15911830  0.08421138  0.43021458     0.19800
H396        H  0.24306150  0.98522306  0.57530914     0.19800
C397        C  0.21151777  0.09600879  0.00113146    -0.06100
C398        C  0.18237219  0.07000502  0.03966103    -0.17200
C399        C  0.17858188  0.01615690  0.03943329     0.11100
C400        C  0.20539210  0.98728241  0.00037514    -0.06000
C401        C  0.23504936  0.01342910  0.96231539    -0.17200
C402        C  0.23904809  0.06713430  0.96274776     0.11200
S403        S  0.13685935  0.98716689  0.08825262    -0.32200
S404        S  0.28227183  0.09611153  0.91523387    -0.32200
H405        H  0.30078613  0.13414313  0.95042197     0.29200
H406        H  0.11641309  0.95002412  0.05319947     0.29200
H407        H  0.16091987  0.09187339  0.06909478     0.19800
H408        H  0.25679351  0.99173155  0.93295538     0.19800
C409        C  0.93958129  0.24901340  0.49395848    -0.06100
C410        C  0.96662253  0.27827479  0.45623089    -0.17200
C411        C  0.02071123  0.27855418  0.45517148     0.11100
C412        C  0.04872146  0.24826329  0.49215712    -0.06000
C413        C  0.02166551  0.21861694  0.52940917    -0.17200
C414        C  0.96770707  0.21777170  0.53001644     0.11200
S415        S  0.05147838  0.32038037  0.40759102    -0.32200
S416        S  0.93743264  0.17358493  0.57564137    -0.32200
H417        H  0.89774882  0.15895925  0.54052463     0.29200
H418        H  0.09107406  0.33636514  0.44224566     0.29200
H419        H  0.94549582  0.30237359  0.42840587     0.19800
H420        H  0.04279632  0.19453579  0.55725394     0.19800
C421        C  0.94418095  0.25675847  0.00188422    -0.06100
C422        C  0.97064399  0.22887812  0.04136352    -0.17200
C423        C  0.02455874  0.22464410  0.04110703     0.11100
C424        C  0.05342944  0.25017020  0.00134916    -0.06000
C425        C  0.02694329  0.27816129  0.96190866    -0.17200
C426        C  0.97299619  0.28222308  0.96205239     0.11200
S427        S  0.05365489  0.18334959  0.09056884    -0.32200
S428        S  0.94368552  0.32270044  0.91197420    -0.32200
H429        H  0.90561976  0.34320656  0.94595054     0.29200
H430        H  0.09025771  0.16185037  0.05557168     0.29200
H431        H  0.94901604  0.20841661  0.07154329     0.19800
H432        H  0.04853165  0.29847160  0.93158652     0.19800
C433        C  0.94274703  0.83100204  0.50266949    -0.06100
C434        C  0.96756042  0.80454442  0.46101251    -0.17200
C435        C  0.02134470  0.79895308  0.45975152     0.11100
C436        C  0.05178040  0.82163498  0.50029186    -0.06000
C437        C  0.02689727  0.84802163  0.54197041    -0.17200
C438        C  0.97314104  0.85341772  0.54334918     0.11200
S439        S  0.04813520  0.75994114  0.40704034    -0.32200
S440        S  0.94627578  0.89181123  0.59650656    -0.32200
H441        H  0.90915785  0.91642449  0.56425031     0.29200
H442        H  0.08537465  0.73580916  0.43954016     0.29200
H443        H  0.94472816  0.78643537  0.43001108     0.19800
H444        H  0.04963591  0.86625950  0.57295916     0.19800
C445        C  0.78601705  0.98825070  0.50319673    -0.06100
C446        C  0.81464382  0.01412383  0.46409714    -0.17200
C447        C  0.81726581  0.06811073  0.46284966     0.11100
C448        C  0.78909844  0.09758539  0.50045125    -0.06000
C449        C  0.76108916  0.07168346  0.54001866    -0.17200
C450        C  0.75887452  0.01770173  0.54156150     0.11200
S451        S  0.85948334  0.09656809  0.41408043    -0.32200
S452        S  0.71838652  0.98907316  0.59170442    -0.32200
H453        H  0.69836472  0.95058402  0.55797806     0.29200
H454        H  0.87721340  0.13635626  0.44748986     0.29200
H455        H  0.83652114  0.99203003  0.43516866     0.19800
H456        H  0.73919957  0.09369694  0.56900418     0.19800
C457        C  0.94514858  0.83246237  0.99322346    -0.06100
C458        C  0.97172553  0.80053363  0.02915635    -0.17200
C459        C  0.02564862  0.79696621  0.02875663     0.11100
C460        C  0.05436696  0.82688124  0.99229571    -0.06000
C461        C  0.02778092  0.85893521  0.95635856    -0.17200
C462        C  0.97376176  0.86264410  0.95697823     0.11200
S463        S  0.05509001  0.75172497  0.07421362    -0.32200
S464        S  0.94400535  0.90924525  0.91331984    -0.32200
H465        H  0.90596969  0.92442376  0.95006883     0.29200
H466        H  0.09362619  0.73530661  0.03851278     0.29200
H467        H  0.95018363  0.77697191  0.05689688     0.19800
H468        H  0.04933547  0.88293587  0.92904145     0.19800
C469        C  0.78924169  0.98734317  0.00151308    -0.06100
C470        C  0.81894751  0.01395785  0.96379982    -0.17200
C471        C  0.82313545  0.06781486  0.96506519     0.11100
C472        C  0.79521676  0.09642668  0.00341167    -0.06000
C473        C  0.76600373  0.06990747  0.04149920    -0.17200
C474        C  0.76236370  0.01601560  0.04073841     0.11200
S475        S  0.86725114  0.09741994  0.91891761    -0.32200
S476        S  0.72016637  0.98661498  0.08880752    -0.32200
H477        H  0.69928724  0.95100099  0.05238665     0.29200
H478        H  0.88422525  0.13575523  0.95460096     0.29200
H479        H  0.84051618  0.99256280  0.93412285     0.19800
H480        H  0.74416192  0.09144828  0.07089708     0.19800
C481        C  0.20055224  0.52881158  0.68613553    -0.06100
C482        C  0.24358778  0.50870005  0.71303934    -0.17200
C483        C  0.24724007  0.51146003  0.76847416     0.11100
C484        C  0.20655114  0.53405532  0.79781947    -0.06000
C485        C  0.16269850  0.55257943  0.77099772    -0.17200
C486        C  0.15923934  0.55022543  0.71549731     0.11200
S487        S  0.30499789  0.48625785  0.79933851    -0.32200
S488        S  0.10197883  0.57653436  0.68460861    -0.32200
H489        H  0.10431148  0.54731684  0.63754511     0.29200
H490        H  0.30615399  0.52149827  0.84191416     0.29200
H491        H  0.27539326  0.49249174  0.69046935     0.19800
H492        H  0.13114127  0.56923974  0.79357249     0.19800
C493        C  0.22351847  0.54654286  0.18596219    -0.06100
C494        C  0.18419367  0.57158981  0.21430527    -0.17200
C495        C  0.18211738  0.56918783  0.26983064     0.11100
C496        C  0.22089370  0.54196563  0.29798729    -0.06000
C497        C  0.26125315  0.51832639  0.26966537    -0.17200
C498        C  0.26297808  0.52029515  0.21402793     0.11200
S499        S  0.12842278  0.60081443  0.30214598    -0.32200
S500        S  0.31561563  0.48756727  0.18111417    -0.32200
H501        H  0.31639632  0.51916391  0.13570150     0.29200
H502        H  0.12542732  0.56742143  0.34603750     0.29200
H503        H  0.15380246  0.59154681  0.19279215     0.19800
H504        H  0.29133493  0.49788432  0.29113916     0.19800
C505        C  0.50077102  0.24230336  0.80615751    -0.06100
C506        C  0.52459209  0.28220478  0.77779117    -0.17200
C507        C  0.52279351  0.28369538  0.72210642     0.11100
C508        C  0.49761150  0.24373828  0.69393659    -0.06000
C509        C  0.47414330  0.20363540  0.72232261    -0.17200
C510        C  0.47560978  0.20237070  0.77800274     0.11200
S511        S  0.55231229  0.33811968  0.68952949    -0.32200
S512        S  0.44442816  0.14904108  0.81077609    -0.32200
H513        H  0.47678250  0.14803007  0.85575532     0.29200
H514        H  0.51974707  0.33877524  0.64470597     0.29200
H515        H  0.54350378  0.31312724  0.79932202     0.19800
H516        H  0.45488537  0.17290381  0.70083177     0.19800
C517        C  0.49437200  0.23865020  0.30647657    -0.06100
C518        C  0.46151513  0.27186931  0.27807381    -0.17200
C519        C  0.46164336  0.27295811  0.22238360     0.11100
C520        C  0.49452271  0.23913234  0.19389240    -0.06000
C521        C  0.52693111  0.20538414  0.22232219    -0.17200
C522        C  0.52713938  0.20463094  0.27807587     0.11200
S523        S  0.42036246  0.31976654  0.19028873    -0.32200
S524        S  0.56994752  0.15932297  0.31041425    -0.32200
H525        H  0.53934964  0.15192834  0.35589745     0.29200
H526        H  0.45372586  0.32979130  0.14748399     0.29200
H527        H  0.43658575  0.29827318  0.29961221     0.19800
H528        H  0.55219483  0.17930084  0.20078581     0.19800
C529        C  0.77830641  0.53742302  0.80447301    -0.06100
C530        C  0.73887841  0.56405487  0.77758003    -0.17200
C531        C  0.73617081  0.56413870  0.72190464     0.11100
C532        C  0.77419168  0.53770290  0.69214843    -0.06000
C533        C  0.81324407  0.51046726  0.71902868    -0.17200
C534        C  0.81597902  0.51035812  0.77472789     0.11200
S535        S  0.68329178  0.59851669  0.69120343    -0.32200
S536        S  0.86890946  0.47582138  0.80528125    -0.32200
H537        H  0.87302320  0.50720568  0.85075710     0.29200
H538        H  0.67986952  0.56721258  0.64558814     0.29200
H539        H  0.70973446  0.58456799  0.80025471     0.19800
H540        H  0.84254744  0.49020964  0.69632610     0.19800
C541        C  0.79514632  0.54348199  0.19224786    -0.06100
C542        C  0.83116292  0.57467468  0.21895761    -0.17200
C543        C  0.83441067  0.57509359  0.27470092     0.11100
C544        C  0.80039976  0.54408267  0.30479971    -0.06000
C545        C  0.76481143  0.51260805  0.27798269    -0.17200
C546        C  0.76144981  0.51230429  0.22241537     0.11200
S547        S  0.88305816  0.61547270  0.30476323    -0.32200
S548        S  0.71226235  0.47237697  0.19264815    -0.32200
H549        H  0.70222136  0.50494426  0.14910234     0.29200
H550        H  0.89019355  0.58528737  0.35065085     0.29200
H551        H  0.85733906  0.59844081  0.19608991     0.19800
H552        H  0.73834824  0.48905220  0.30073804     0.19800
C553        C  0.49882547  0.83607759  0.80822088    -0.06100
C554        C  0.47116542  0.79652201  0.78288436    -0.17200
C555        C  0.47047183  0.79208228  0.72733228     0.11100
C556        C  0.49726224  0.82856329  0.69619072    -0.06000
C557        C  0.52467802  0.86824373  0.72159876    -0.17200
C558        C  0.52549600  0.87258870  0.77712037     0.11200
S559        S  0.43549936  0.73869305  0.69871408    -0.32200
S560        S  0.56088572  0.92572171  0.80572881    -0.32200
H561        H  0.53091309  0.93093871  0.85200278     0.29200
H562        H  0.46729855  0.73252397  0.65385463     0.29200
H563        H  0.45070662  0.76840775  0.80669537     0.19800
H564        H  0.54509202  0.89642562  0.69783870     0.19800
C565        C  0.49742522  0.83133679  0.19576388    -0.06100
C566        C  0.52463439  0.79182012  0.22189277    -0.17200
C567        C  0.52415746  0.78768205  0.27745511     0.11100
C568        C  0.49669892  0.82441283  0.30794555    -0.06000
C569        C  0.46897332  0.86356472  0.28186201    -0.17200
C570        C  0.46921288  0.86759919  0.22628183     0.11200
S571        S  0.55863712  0.73434737  0.30704355    -0.32200
S572        S  0.43338418  0.92022850  0.19692561    -0.32200
H573        H  0.46531796  0.92647199  0.15224706     0.29200
H574        H  0.52585971  0.72866054  0.35117190     0.29200
H575        H  0.54581665  0.76355920  0.19867263     0.19800
H576        H  0.44775504  0.89176209  0.30513652     0.19800
loop_ 
_geom_bond_atom_site_label_1 
_geom_bond_atom_site_label_2 
_geom_bond_distance 
_geom_bond_site_symmetry_2 
_ccdc_geom_bond_type 
N1            C6   1.356       .  A
N1            C5   1.352       .  A
N1           H33   1.042       .  S
N2            C9   1.351       .  A
N2           C10   1.354       .  A
N3            C8   1.353       .  A
N3            C7   1.354       .  A
N3           H34   1.042       .  S
N4           C11   1.350       .  A
N4           C12   1.348       .  A
C5           C13   1.383       .  A
C5           C21   1.410       .  A
C6           C22   1.423   1_554  A
C6           C14   1.391       .  A
C7           C15   1.391       .  A
C7           C24   1.422   1_556  A
C8           C23   1.411       .  A
C8           C16   1.384       .  A
C9           C21   1.410       .  A
C9           C17   1.382       .  A
C10          C24   1.423       .  A
C10          C18   1.391       .  A
C11          C19   1.390       .  A
C11          C22   1.416       .  A
C12          C20   1.383       .  A
C12          C23   1.405       .  A
C13          C14   1.376       .  A
C13          H25   1.082       .  S
C14          H26   1.079       .  S
C15          C16   1.378       .  A
C15          H27   1.081       .  S
C16          H28   1.082       .  S
C17          C18   1.373       .  A
C17          H29   1.083       .  S
C18          H30   1.079       .  S
C19          C20   1.374       .  A
C19          H31   1.081       .  S
C20          H32   1.083       .  S
C21         C565   1.489       .  S
C22         C367   1.499       .  S
C23         C553   1.485       .  S
C24         C283   1.504       .  S
N35          C40   1.355       .  A
N35          C39   1.352       .  A
N35          H67   1.043       .  S
N36          C43   1.350       .  A
N36          C44   1.352       .  A
N37          C42   1.352       .  A
N37          C41   1.355       .  A
N37          H68   1.043       .  S
N38          C45   1.353       .  A
N38          C46   1.351       .  A
C39          C47   1.383       .  A
C39          C55   1.411       .  A
C40          C56   1.422       .  A
C40          C48   1.391       .  A
C41          C49   1.391       .  A
C41          C58   1.422       .  A
C42          C57   1.410       .  A
C42          C50   1.383       .  A
C43          C55   1.407       .  A
C43          C51   1.382       .  A
C44          C58   1.419       .  A
C44          C52   1.390       .  A
C45          C53   1.391       .  A
C45          C56   1.422       .  A
C46          C54   1.382       .  A
C46          C57   1.409       .  A
C47          C48   1.378       .  A
C47          H59   1.082       .  S
C48          H60   1.081       .  S
C49          C50   1.377       .  A
C49          H61   1.081       .  S
C50          H62   1.082       .  S
C51          C52   1.373       .  A
C51          H63   1.083       .  S
C52          H64   1.080       .  S
C53          C54   1.373       .  A
C53          H65   1.080       .  S
C54          H66   1.083       .  S
C55         C568   1.487       .  S
C56         C297   1.502       .  S
C57         C556   1.487       .  S
C58         C383   1.500       .  S
N69          C74   1.354       .  A
N69          C73   1.351       .  A
N69         H101   1.043       .  S
N70          C77   1.352       .  A
N70          C78   1.354       .  A
N71          C76   1.352       .  A
N71          C75   1.356       .  A
N71         H102   1.042       .  S
N72          C79   1.353       .  A
N72          C80   1.350       .  A
C73          C81   1.384       .  A
C73          C89   1.410       .  A
C74          C90   1.421       .  A
C74          C82   1.390       .  A
C75          C83   1.390       .  A
C75          C92   1.421       .  A
C76          C91   1.413       .  A
C76          C84   1.385       .  A
C77          C89   1.409       .  A
C77          C85   1.382       .  A
C78          C92   1.422   1_554  A
C78          C86   1.391       .  A
C79          C87   1.390       .  A
C79          C90   1.421   1_556  A
C80          C88   1.383       .  A
C80          C91   1.410       .  A
C81          C82   1.377       .  A
C81          H93   1.082       .  S
C82          H94   1.081       .  S
C83          C84   1.378       .  A
C83          H95   1.081       .  S
C84          H96   1.083       .  S
C85          C86   1.373       .  A
C85          H97   1.082       .  S
C86          H98   1.081       .  S
C87          C88   1.375       .  A
C87          H99   1.081       .  S
C88         H100   1.083       .  S
C89         C541   1.492       .  S
C90         C311   1.500       .  S
C91         C529   1.488       .  S
C92         C285   1.504       .  S
N103        C108   1.352       .  A
N103        C107   1.354       .  A
N103        H135   1.045       .  S
N104        C111   1.354       .  A
N104        C112   1.352       .  A
N105        C110   1.354       .  A
N105        C109   1.351       .  A
N105        H136   1.044       .  S
N106        C113   1.350       .  A
N106        C114   1.352       .  A
C107        C115   1.391       .  A
C107        C123   1.422       .  A
C108        C124   1.412       .  A
C108        C116   1.384       .  A
C109        C117   1.384       .  A
C109        C126   1.411       .  A
C110        C125   1.420       .  A
C110        C118   1.390       .  A
C111        C123   1.423       .  A
C111        C119   1.391       .  A
C112        C126   1.411       .  A
C112        C120   1.382       .  A
C113        C121   1.383       .  A
C113        C124   1.408       .  A
C114        C122   1.390       .  A
C114        C125   1.419       .  A
C115        C116   1.378       .  A
C115        H127   1.081       .  S
C116        H128   1.083       .  S
C117        C118   1.379       .  A
C117        H129   1.082       .  S
C118        H130   1.081       .  S
C119        C120   1.374       .  A
C119        H131   1.080       .  S
C120        H132   1.082       .  S
C121        C122   1.375       .  A
C121        H133   1.083       .  S
C122        H134   1.081       .  S
C123        C299   1.504       .  S
C124        C532   1.488       .  S
C125        C327   1.499       .  S
C126        C544   1.492       .  S
N137        C142   1.354       .  A
N137        C141   1.352       .  A
N137        H169   1.042       .  S
N138        C145   1.351       .  A
N138        C146   1.353       .  A
N139        C144   1.352       .  A
N139        C143   1.354       .  A
N139        H170   1.042       .  S
N140        C147   1.352       .  A
N140        C148   1.349       .  A
C141        C149   1.384       .  A
C141        C157   1.411       .  A
C142        C158   1.421   1_554  A
C142        C150   1.391       .  A
C143        C151   1.390       .  A
C143        C160   1.420   1_556  A
C144        C159   1.411       .  A
C144        C152   1.384       .  A
C145        C157   1.409       .  A
C145        C153   1.382       .  A
C146        C160   1.420       .  A
C146        C154   1.390       .  A
C147        C155   1.390       .  A
C147        C158   1.420       .  A
C148        C156   1.383       .  A
C148        C159   1.408       .  A
C149        C150   1.378       .  A
C149        H161   1.082       .  S
C150        H162   1.081       .  S
C151        C152   1.378       .  A
C151        H163   1.081       .  S
C152        H164   1.082       .  S
C153        C154   1.374       .  A
C153        H165   1.082       .  S
C154        H166   1.080       .  S
C155        C156   1.375       .  A
C155        H167   1.080       .  S
C156        H168   1.083       .  S
C157        C520   1.492       .  S
C158        C341   1.500       .  S
C159        C505   1.485       .  S
C160        C313   1.501       .  S
N171        C176   1.350       .  A
N171        C175   1.354       .  A
N171        H203   1.042       .  S
N172        C179   1.352       .  A
N172        C180   1.349       .  A
N173        C178   1.355       .  A
N173        C177   1.353       .  A
N173        H204   1.043       .  S
N174        C181   1.352       .  A
N174        C182   1.355       .  A
C175        C183   1.390       .  A
C175        C191   1.420       .  A
C176        C192   1.409       .  A
C176        C184   1.384       .  A
C177        C185   1.384       .  A
C177        C194   1.412       .  A
C178        C193   1.422       .  A
C178        C186   1.390       .  A
C179        C191   1.419       .  A
C179        C187   1.390       .  A
C180        C194   1.408       .  A
C180        C188   1.383       .  A
C181        C189   1.382       .  A
C181        C192   1.410       .  A
C182        C190   1.391       .  A
C182        C193   1.424       .  A
C183        C184   1.378       .  A
C183        H195   1.081       .  S
C184        H196   1.083       .  S
C185        C186   1.377       .  A
C185        H197   1.082       .  S
C186        H198   1.081       .  S
C187        C188   1.375       .  A
C187        H199   1.081       .  S
C188        H200   1.082       .  S
C189        C190   1.373       .  A
C189        H201   1.083       .  S
C190        H202   1.079       .  S
C191        C325   1.499       .  S
C192        C508   1.486       .  S
C193        C353   1.506       .  S
C194        C517   1.490       .  S
N205        C210   1.358       .  A
N205        C209   1.353       .  A
N205        H237   1.040       .  S
N206        C213   1.353       .  A
N206        C214   1.357       .  A
N207        C212   1.355       .  A
N207        C211   1.356       .  A
N207        H238   1.042       .  S
N208        C215   1.352       .  A
N208        C216   1.350       .  A
C209        C217   1.384       .  A
C209        C225   1.411       .  A
C210        C226   1.423       .  A
C210        C218   1.390       .  A
C211        C219   1.390       .  A
C211        C228   1.422   1_554  A
C212        C227   1.410       .  A
C212        C220   1.383       .  A
C213        C225   1.414       .  A
C213        C221   1.381       .  A
C214        C228   1.429       .  A
C214        C222   1.393       .  A
C215        C223   1.391       .  A
C215        C226   1.421   1_554  A
C216        C224   1.382       .  A
C216        C227   1.407       .  A
C217        C218   1.367       .  A
C217        H229   1.083       .  S
C218        H230   1.080       .  S
C219        C220   1.370       .  A
C219        H231   1.080       .  S
C220        H232   1.083       .  S
C221        C222   1.367       .  A
C221        H233   1.083       .  S
C222        H234   1.077       .  S
C223        C224   1.367       .  A
C223        H235   1.079       .  S
C224        H236   1.083       .  S
C225        C484   1.486       .  S
C226        C339   1.507       .  S
C227        C493   1.486       .  S
C228        C369   1.512       .  S
N239        C244   1.354       .  A
N239        C243   1.358       .  A
N239        H271   1.040       .  S
N240        C247   1.352       .  A
N240        C248   1.350       .  A
N241        C246   1.355       .  A
N241        C245   1.354       .  A
N241        H272   1.041       .  S
N242        C249   1.352       .  A
N242        C250   1.356       .  A
C243        C251   1.389       .  A
C243        C259   1.423       .  A
C244        C260   1.413       .  A
C244        C252   1.384       .  A
C245        C253   1.383       .  A
C245        C262   1.408       .  A
C246        C261   1.420       .  A
C246        C254   1.390       .  A
C247        C259   1.421       .  A
C247        C255   1.392       .  A
C248        C262   1.407       .  A
C248        C256   1.382       .  A
C249        C257   1.382       .  A
C249        C260   1.414       .  A
C250        C258   1.392       .  A
C250        C261   1.426       .  A
C251        C252   1.370       .  A
C251        H263   1.080       .  S
C252        H264   1.083       .  S
C253        C254   1.371       .  A
C253        H265   1.083       .  S
C254        H266   1.082       .  S
C255        C256   1.367       .  A
C255        H267   1.079       .  S
C256        H268   1.083       .  S
C257        C258   1.368       .  A
C257        H269   1.082       .  S
C258        H270   1.078       .  S
C259        C381   1.507       .  S
C260        C496   1.489       .  S
C261        C355   1.508       .  S
C262        C481   1.482       .  S
O273       Ni281   1.920       .  S
O273        C283   1.282   1_556  A
O274       Ni281   1.924       .  S
O274        C284   1.282       .  A
O275       Ni281   1.931       .  S
O275        C285   1.284       .  A
O276       Ni281   1.921       .  S
O276        C286   1.282   1_556  A
O277       Ni282   1.918       .  S
O277        C286   1.281       .  A
O278       Ni282   1.911       .  S
O278        C285   1.280   1_554  A
O279       Ni282   1.915       .  S
O279        C284   1.281   1_554  A
O280       Ni282   1.922       .  S
O280        C283   1.281       .  A
Ni281      Ni282   2.379   1_556  S
C284        C457   1.480       .  S
C286        C469   1.483       .  S
O287       Ni295   1.923       .  S
O287        C297   1.282       .  A
O288       Ni295   1.914       .  S
O288        C298   1.281       .  A
O289       Ni295   1.913       .  S
O289        C299   1.280       .  A
O290       Ni295   1.921       .  S
O290        C300   1.282       .  A
O291       Ni296   1.920       .  S
O291        C300   1.281       .  A
O292       Ni296   1.927       .  S
O292        C299   1.283       .  A
O293       Ni296   1.920       .  S
O293        C298   1.282       .  A
O294       Ni296   1.915       .  S
O294        C297   1.280       .  A
Ni295      Ni296   2.378       .  S
C298        C433   1.482       .  S
C300        C445   1.483       .  S
O301       Ni309   1.913       .  S
O301        C311   1.280   1_556  A
O302       Ni309   1.919       .  S
O302        C312   1.282   1_556  A
O303       Ni309   1.922       .  S
O303        C313   1.282   1_556  A
O304       Ni309   1.915       .  S
O304        C314   1.280   1_556  A
O305       Ni310   1.922       .  S
O305        C314   1.283       .  A
O306       Ni310   1.915       .  S
O306        C313   1.280       .  A
O307       Ni310   1.917       .  S
O307        C312   1.281       .  A
O308       Ni310   1.925       .  S
O308        C311   1.283       .  A
Ni309      Ni310   2.381   1_556  S
C312        C472   1.480       .  S
C314        C421   1.482       .  S
O315       Ni323   1.922       .  S
O315        C325   1.282       .  A
O316       Ni323   1.916       .  S
O316        C326   1.281       .  A
O317       Ni323   1.913       .  S
O317        C327   1.280       .  A
O318       Ni323   1.918       .  S
O318        C328   1.282       .  A
O319       Ni324   1.920       .  S
O319        C328   1.282       .  A
O320       Ni324   1.928       .  S
O320        C327   1.283       .  A
O321       Ni324   1.917       .  S
O321        C326   1.281       .  A
O322       Ni324   1.913       .  S
O322        C325   1.280       .  A
Ni323      Ni324   2.381       .  S
C326        C409   1.479       .  S
C328        C448   1.484       .  S
O329       Ni337   1.911       .  S
O329        C339   1.279   1_554  A
O330       Ni337   1.915       .  S
O330        C340   1.281       .  A
O331       Ni337   1.919       .  S
O331        C341   1.282   1_554  A
O332       Ni337   1.917       .  S
O332        C342   1.281       .  A
O333       Ni338   1.919       .  S
O333        C342   1.282   1_556  A
O334       Ni338   1.918       .  S
O334        C341   1.281       .  A
O335       Ni338   1.909       .  S
O335        C340   1.280   1_556  A
O336       Ni338   1.916       .  S
O336        C339   1.281       .  A
Ni337      Ni338   2.380   1_554  S
C340        C397   1.473       .  S
C342        C424   1.483       .  S
O343       Ni351   1.923       .  S
O343        C353   1.283       .  A
O344       Ni351   1.919       .  S
O344        C354   1.281       .  A
O345       Ni351   1.909       .  S
O345        C355   1.277       .  A
O346       Ni351   1.918       .  S
O346        C356   1.282       .  A
O347       Ni352   1.917       .  S
O347        C356   1.281       .  A
O348       Ni352   1.924       .  S
O348        C355   1.284       .  A
O349       Ni352   1.914       .  S
O349        C354   1.281       .  A
O350       Ni352   1.917       .  S
O350        C353   1.280       .  A
Ni351      Ni352   2.379       .  S
C354        C412   1.477       .  S
C356        C385   1.483       .  S
O357       Ni365   1.913       .  S
O357        C367   1.279   1_554  A
O358       Ni365   1.913       .  S
O358        C368   1.280   1_554  A
O359       Ni365   1.925       .  S
O359        C369   1.284   1_554  A
O360       Ni365   1.916       .  S
O360        C370   1.281   1_554  A
O361       Ni366   1.911       .  S
O361        C370   1.280       .  A
O362       Ni366   1.911       .  S
O362        C369   1.277       .  A
O363       Ni366   1.923       .  S
O363        C368   1.282       .  A
O364       Ni366   1.920       .  S
O364        C367   1.282       .  A
Ni365      Ni366   2.379   1_554  S
C368        C460   1.481       .  S
C370        C400   1.477   1_556  S
O371       Ni379   1.920       .  S
O371        C381   1.282       .  A
O372       Ni379   1.914       .  S
O372        C382   1.280       .  A
O373       Ni379   1.919       .  S
O373        C383   1.282       .  A
O374       Ni379   1.921       .  S
O374        C384   1.282       .  A
O375       Ni380   1.914       .  S
O375        C384   1.281       .  A
O376       Ni380   1.915       .  S
O376        C383   1.280       .  A
O377       Ni380   1.920       .  S
O377        C382   1.282       .  A
O378       Ni380   1.910       .  S
O378        C381   1.279       .  A
Ni379      Ni380   2.378       .  S
C382        C388   1.484       .  S
C384        C436   1.483       .  S
C385        C386   1.404       .  A
C385        C390   1.415       .  A
C386        C387   1.399       .  A
C386        H395   1.084       .  S
C387        C388   1.416   1_545  A
C387        S391   1.804   1_545  S
C388        C389   1.405   1_565  A
C389        C390   1.401       .  A
C389        H396   1.084   1_545  S
C390        S392   1.803       .  S
S391        H394   1.408       .  S
S392        H393   1.408       .  S
C397        C398   1.403       .  A
C397        C402   1.412   1_554  A
C398        C399   1.399       .  A
C398        H407   1.084       .  S
C399        C400   1.415   1_545  A
C399        S403   1.803   1_545  S
C400        C401   1.404   1_564  A
C401        C402   1.396       .  A
C401        H408   1.084   1_545  S
C402        S404   1.804       .  S
S403        H406   1.407       .  S
S404        H405   1.408       .  S
C409        C410   1.404       .  A
C409        C414   1.415       .  A
C410        C411   1.401   1_655  A
C410        H419   1.084       .  S
C411        C412   1.414       .  A
C411        S415   1.804       .  S
C412        C413   1.402       .  A
C413        C414   1.398   1_455  A
C413        H420   1.084       .  S
C414        S416   1.804       .  S
S415        H418   1.407       .  S
S416        H417   1.406       .  S
C421        C422   1.404       .  A
C421        C426   1.415   1_554  A
C422        C423   1.400   1_655  A
C422        H431   1.084       .  S
C423        C424   1.415       .  A
C423        S427   1.803       .  S
C424        C425   1.405   1_554  A
C425        C426   1.401   1_455  A
C425        H432   1.084       .  S
C426        S428   1.804       .  S
S427        H430   1.407       .  S
S428        H429   1.407       .  S
C433        C434   1.405       .  A
C433        C438   1.414       .  A
C434        C435   1.400   1_655  A
C434        H443   1.084       .  S
C435        C436   1.415       .  A
C435        S439   1.803       .  S
C436        C437   1.406       .  A
C437        C438   1.399   1_455  A
C437        H444   1.084       .  S
C438        S440   1.803       .  S
S439        H442   1.408       .  S
S440        H441   1.407       .  S
C445        C446   1.405   1_565  A
C445        C450   1.415   1_565  A
C446        C447   1.401       .  A
C446        H455   1.084   1_545  S
C447        C448   1.416       .  A
C447        S451   1.804       .  S
C448        C449   1.405       .  A
C449        C450   1.401       .  A
C449        H456   1.084       .  S
C450        S452   1.803   1_545  S
S451        H454   1.406       .  S
S452        H453   1.407       .  S
C457        C458   1.403   1_556  A
C457        C462   1.414       .  A
C458        C459   1.399   1_655  A
C458        H467   1.084       .  S
C459        C460   1.415   1_554  A
C459        S463   1.804       .  S
C460        C461   1.405       .  A
C461        C462   1.402   1_455  A
C461        H468   1.084       .  S
C462        S464   1.802       .  S
S463        H466   1.407       .  S
S464        H465   1.406       .  S
C469        C470   1.405   1_564  A
C469        C474   1.416   1_565  A
C470        C471   1.401       .  A
C470        H479   1.083   1_545  S
C471        C472   1.413   1_556  A
C471        S475   1.803       .  S
C472        C473   1.403       .  A
C473        C474   1.400       .  A
C473        H480   1.084       .  S
C474        S476   1.802   1_545  S
S475        H478   1.408       .  S
S476        H477   1.407       .  S
C481        C482   1.401       .  A
C481        C486   1.412       .  A
C482        C483   1.397       .  A
C482        H491   1.084       .  S
C483        C484   1.412       .  A
C483        S487   1.804       .  S
C484        C485   1.403       .  A
C485        C486   1.398       .  A
C485        H492   1.084       .  S
C486        S488   1.804       .  S
S487        H490   1.406       .  S
S488        H489   1.404       .  S
C493        C494   1.401       .  A
C493        C498   1.413       .  A
C494        C495   1.397       .  A
C494        H503   1.084       .  S
C495        C496   1.414       .  A
C495        S499   1.805       .  S
C496        C497   1.404       .  A
C497        C498   1.399       .  A
C497        H504   1.084       .  S
C498        S500   1.804       .  S
S499        H502   1.405       .  S
S500        H501   1.405       .  S
C505        C506   1.402       .  A
C505        C510   1.413       .  A
C506        C507   1.400       .  A
C506        H515   1.084       .  S
C507        C508   1.414       .  A
C507        S511   1.805       .  S
C508        C509   1.402       .  A
C509        C510   1.399       .  A
C509        H516   1.084       .  S
C510        S512   1.804       .  S
S511        H514   1.405       .  S
S512        H513   1.405       .  S
C517        C518   1.403       .  A
C517        C522   1.415       .  A
C518        C519   1.399       .  A
C518        H527   1.084       .  S
C519        C520   1.415       .  A
C519        S523   1.804       .  S
C520        C521   1.405       .  A
C521        C522   1.401       .  A
C521        H528   1.084       .  S
C522        S524   1.805       .  S
S523        H526   1.406       .  S
S524        H525   1.406       .  S
C529        C530   1.403       .  A
C529        C534   1.414       .  A
C530        C531   1.400       .  A
C530        H539   1.084       .  S
C531        C532   1.412       .  A
C531        S535   1.803       .  S
C532        C533   1.404       .  A
C533        C534   1.401       .  A
C533        H540   1.084       .  S
C534        S536   1.805       .  S
S535        H538   1.406       .  S
S536        H537   1.405       .  S
C541        C542   1.405       .  A
C541        C546   1.414       .  A
C542        C543   1.403       .  A
C542        H551   1.084       .  S
C543        C544   1.415       .  A
C543        S547   1.804       .  S
C544        C545   1.403       .  A
C545        C546   1.398       .  A
C545        H552   1.084       .  S
C546        S548   1.804       .  S
S547        H550   1.406       .  S
S548        H549   1.406       .  S
C553        C554   1.404       .  A
C553        C558   1.411       .  A
C554        C555   1.400       .  A
C554        H563   1.084       .  S
C555        C556   1.413       .  A
C555        S559   1.804       .  S
C556        C557   1.404       .  A
C557        C558   1.399       .  A
C557        H564   1.084       .  S
C558        S560   1.804       .  S
S559        H562   1.406       .  S
S560        H561   1.405       .  S
C565        C566   1.404       .  A
C565        C570   1.414       .  A
C566        C567   1.400       .  A
C566        H575   1.084       .  S
C567        C568   1.412       .  A
C567        S571   1.803       .  S
C568        C569   1.403       .  A
C569        C570   1.400       .  A
C569        H576   1.084       .  S
C570        S572   1.804       .  S
S571        H574   1.406       .  S
S572        H573   1.405       .  S
