geometry optimzed in LAMMPS
_audit_creation_date              2020-12-01 
_audit_creation_method            'lammps2cif' 
_symmetry_space_group_name_H-M    'P1' 
_symmetry_Int_Tables_number       1 
_symmetry_cell_setting            triclinic 
loop_ 
_symmetry_equiv_pos_as_xyz 
  x,y,z 
_cell_length_a                    40.14754661 
_cell_length_b                    40.15669716440193 
_cell_length_c                    40.15806475182216 
_cell_angle_alpha                 89.8454121012605 
_cell_angle_beta                  89.87075614074473 
_cell_angle_gamma                 89.83690333186132 
loop_ 
_atom_site_label 
_atom_site_type_symbol 
_atom_site_fract_x 
_atom_site_fract_y 
_atom_site_fract_z 
_atom_site_charge 
C1          C  0.72573706  0.03733735  0.03005105     0.86900
C2          C  0.76468110  0.03997299  0.03096989    -0.53400
C3          C  0.78040460  0.01907610  0.00896993     0.09800
C4          C  0.75687952  0.99700759  0.98969303     0.20800
C5          C  0.71664042  0.04182516  0.99277807    -0.54100
C6          C  0.73293675  0.02045013  0.97204120     0.09900
C7          C  0.71976535  0.99977437  0.03722664    -0.53600
C8          C  0.73627656  0.97904028  0.01583473     0.10500
H9          H  0.77921622  0.05483876  0.04782573     0.15000
H10         H  0.77021708  0.97958050  0.97276399     0.00700
H11         H  0.69843859  0.05976556  0.98381354     0.15300
H12         H  0.70469200  0.99063414  0.05776947     0.15100
C13         C  0.72199027  0.70230001  0.69574474     0.86900
C14         C  0.72267180  0.69513482  0.73401726    -0.53400
C15         C  0.74212759  0.71680872  0.75153966     0.09800
C16         C  0.75873289  0.74321115  0.73011343     0.20800
C17         C  0.71101724  0.73924649  0.69339380    -0.54100
C18         C  0.73030705  0.76027595  0.71175060     0.09900
C19         C  0.75962053  0.70215053  0.68613717    -0.53600
C20         C  0.77843142  0.72443954  0.70372874     0.10500
H21         H  0.70969504  0.67498743  0.74642670     0.15000
H22         H  0.77419247  0.76053677  0.74504490     0.00700
H23         H  0.68940944  0.74769720  0.67948987     0.15300
H24         H  0.77047318  0.68556189  0.66776976     0.15100
C25         C  0.04955304  0.03077804  0.69342095     0.86900
C26         C  0.05730246  0.99298742  0.69285490    -0.53400
C27         C  0.03938256  0.97514345  0.71567569     0.09800
C28         C  0.01520966  0.99586372  0.73620146     0.20800
C29         C  0.01095791  0.03171277  0.68794660    -0.54100
C30         C  0.99328427  0.01357836  0.71084536     0.09900
C31         C  0.05414879  0.04137825  0.73023379    -0.53600
C32         C  0.03610136  0.02272850  0.75218409     0.10500
H33         H  0.07470147  0.98138806  0.67568858     0.15000
H34         H  0.00086904  0.98095567  0.75468049     0.00700
H35         H  0.99863538  0.04257832  0.66670699     0.15300
H36         H  0.07019500  0.06158145  0.73810962     0.15100
C37         C  0.22126068  0.20355732  0.70531617     0.86900
C38         C  0.25889993  0.19845165  0.69785935    -0.53400
C39         C  0.27933617  0.21675847  0.71786337     0.09800
C40         C  0.26118891  0.23754350  0.74376827     0.20800
C41         C  0.21857575  0.19511710  0.74335233    -0.54100
C42         C  0.23942841  0.21335683  0.76303778     0.09900
C43         C  0.21617588  0.24211245  0.70408488    -0.53600
C44         C  0.23718223  0.25969452  0.72462972     0.10500
H45         H  0.26843095  0.18226034  0.67844071     0.15000
H46         H  0.27874986  0.25164364  0.75965406     0.00700
H47         H  0.20265848  0.17645958  0.75444766     0.15300
H48         H  0.19759653  0.25421820  0.68861455     0.15100
Zn49       Zn  0.48249272  0.26920917  0.72123365     1.49700
Zn50       Zn  0.48189711  0.21402541  0.77676559     1.49400
Zn51       Zn  0.53920434  0.21235587  0.71811085     1.49100
Zn52       Zn  0.53769984  0.26854942  0.77664086     1.49500
O53         O  0.51090690  0.24040618  0.74777982    -1.83700
O54         O  0.43428922  0.25826790  0.72612869    -0.74400
O55         O  0.49113622  0.16650654  0.76915359    -0.74200
O56         O  0.52749269  0.22171321  0.66828946    -0.73700
O57         O  0.43288664  0.21879916  0.76480356    -0.74400
O58         O  0.49090413  0.26292772  0.67331366    -0.74000
O59         O  0.52903736  0.16257835  0.72875595    -0.74600
O60         O  0.58490411  0.26121291  0.76689789    -0.74000
O61         O  0.49194463  0.22010814  0.82581721    -0.74700
O62         O  0.58941696  0.22412272  0.72619512    -0.74100
O63         O  0.53332705  0.25630903  0.82538143    -0.74600
O64         O  0.53195615  0.31753673  0.76620550    -0.74500
O65         O  0.49188229  0.31724708  0.72817760    -0.74300
C66         C  0.41826955  0.23690082  0.74314621     0.77500
C67         C  0.50920130  0.14911473  0.74994492     0.78000
C68         C  0.50812131  0.24355772  0.65530576     0.77000
C69         C  0.60265075  0.24425590  0.74708756     0.77300
C70         C  0.51463575  0.23609751  0.84110843     0.78500
C71         C  0.51350286  0.33263679  0.74524107     0.77500
C72         C  0.54903724  0.52717015  0.69787860     0.86900
C73         C  0.51042977  0.53192873  0.69639024    -0.53400
C74         C  0.49326597  0.51232058  0.71866760     0.09800
C75         C  0.51578404  0.49061938  0.74011759     0.20800
C76         C  0.55712135  0.53415000  0.73491416    -0.54100
C77         C  0.53976254  0.51454307  0.75653550     0.09900
C78         C  0.55376426  0.48916117  0.69324776    -0.53600
C79         C  0.53639223  0.47027007  0.71562440     0.10500
H80         H  0.49749915  0.54923641  0.68025110     0.15000
H81         H  0.50213178  0.47485948  0.75837467     0.00700
H82         H  0.57448216  0.55303471  0.74322598     0.15300
H83         H  0.56782129  0.47854526  0.67278126     0.15100
C84         C  0.54740412  0.20034808  0.03905601     0.86900
C85         C  0.55664917  0.23802384  0.04011960    -0.53400
C86         C  0.53879187  0.25733921  0.01819449     0.09800
C87         C  0.51293920  0.23786320  0.99845710     0.20800
C88         C  0.50903048  0.20074167  0.04579490    -0.54100
C89         C  0.49151319  0.22066921  0.02439228     0.09900
C90         C  0.55036683  0.19059928  0.00183640    -0.53600
C91         C  0.53214523  0.21037568  0.98099998     0.10500
H92         H  0.57556134  0.24825096  0.05635343     0.15000
H93         H  0.49802207  0.25325925  0.98089181     0.00700
H94         H  0.49642810  0.18780757  0.06583562     0.15300
H95         H  0.56573371  0.17020914  0.99285501     0.15100
Zn96       Zn  0.79226180  0.77723764  0.00968887     1.49700
Zn97       Zn  0.79421723  0.72246648  0.95382395     1.49400
Zn98       Zn  0.73720486  0.71796500  0.01039487     1.49100
Zn99       Zn  0.73811771  0.77816207  0.95492104     1.49500
O100        O  0.76485437  0.74832496  0.98258843    -1.83700
O101        O  0.84077518  0.76790195  0.00442110    -0.74400
O102        O  0.78604435  0.67401141  0.95913350    -0.74200
O103        O  0.74864656  0.72584310  0.06049110    -0.73700
O104        O  0.84247747  0.72784558  0.96634820    -0.74400
O105        O  0.78386700  0.76829777  0.05681089    -0.74000
O106        O  0.74593202  0.66822353  0.99671977    -0.74600
O107        O  0.69111499  0.77021788  0.96444920    -0.74000
O108        O  0.78404606  0.73061394  0.90534402    -0.74700
O109        O  0.68753087  0.72937849  0.00195901    -0.74100
O110        O  0.74243782  0.76708364  0.90621342    -0.74600
O111        O  0.74329804  0.82716713  0.96565269    -0.74500
O112        O  0.78144252  0.82553919  0.00530498    -0.74300
C113        C  0.85673361  0.74614777  0.98784355     0.77500
C114        C  0.76671565  0.65555841  0.97594615     0.78000
C115        C  0.76723581  0.74786360  0.07412385     0.77000
C116        C  0.67405271  0.75089535  0.98258214     0.77300
C117        C  0.76118258  0.74694593  0.89045969     0.78500
C118        C  0.76057401  0.84167628  0.98782884     0.77500
C119        C  0.88309325  0.36812507  0.86407717    -0.02100
C120        C  0.96931636  0.45559006  0.77545625     0.86900
C121        C  0.96076829  0.49325921  0.77098365    -0.53400
C122        C  0.98338642  0.51068998  0.75228336     0.09800
C123        C  0.01190898  0.48924197  0.73916409     0.20800
C124        C  0.97244546  0.44355271  0.73873326    -0.54100
C125        C  0.99518291  0.46104973  0.72001569     0.09900
C126        C  0.00554220  0.45495879  0.78865523    -0.53600
C127        C  0.02746279  0.47290227  0.76973819     0.10500
H128        H  0.93860706  0.50533532  0.78049738     0.15000
H129        H  0.03016432  0.50363613  0.72413090     0.00700
H130        H  0.95721306  0.42397220  0.72817199     0.15300
H131        H  0.01309432  0.44140790  0.81083119     0.15100
C132        C  0.79373110  0.45491009  0.95153739     0.86900
C133        C  0.79255050  0.49167861  0.93929247    -0.53400
C134        C  0.77359259  0.51247834  0.95885803     0.09800
C135        C  0.75844837  0.49519584  0.98906380     0.20800
C136        C  0.80585275  0.45750452  0.98821637    -0.54100
C137        C  0.78745428  0.47894754  0.00759666     0.09900
C138        C  0.75650180  0.44488302  0.95616097    -0.53600
C139        C  0.73822734  0.46633062  0.97540212     0.10500
H140        H  0.80597692  0.50044096  0.91748958     0.15000
H141        H  0.74352191  0.51235149  0.00475465     0.00700
H142        H  0.82599141  0.44254024  0.99835400     0.15300
H143        H  0.74526123  0.42248618  0.94651356     0.15100
C144        C  0.23209049  0.03054741  0.53072115     0.86900
C145        C  0.22136102  0.99352604  0.53441362    -0.53400
C146        C  0.23765761  0.97237272  0.51333103     0.09800
C147        C  0.26326623  0.98899705  0.49130566     0.20800
C148        C  0.27069726  0.02902881  0.53552467    -0.54100
C149        C  0.28651743  0.00712387  0.51458242     0.09900
C150        C  0.22833091  0.03816067  0.49273057    -0.53600
C151        C  0.24517928  0.01632374  0.47237007     0.10500
H152        H  0.20301785  0.98491124  0.55235154     0.15000
H153        H  0.27614286  0.97080273  0.47490078     0.00700
H154        H  0.28521740  0.04337226  0.55271076     0.15300
H155        H  0.21462876  0.05946617  0.48323599     0.15100
C156        C  0.13801096  0.11914612  0.61098995    -0.02100
C157        C  0.05045329  0.70204850  0.02690305     0.86900
C158        C  0.06340648  0.73840954  0.02643275    -0.53400
C159        C  0.04662656  0.75874720  0.00481328     0.09800
C160        C  0.01853906  0.74158470  0.98625533     0.20800
C161        C  0.01255218  0.70625618  0.03475563    -0.54100
C162        C  0.99635543  0.72735141  0.01330382     0.09900
C163        C  0.05111808  0.69079329  0.99011666    -0.53600
C164        C  0.03425364  0.71167793  0.96930485     0.10500
H165        H  0.08320098  0.74740301  0.04239088     0.15000
H166        H  0.00495439  0.75795811  0.96850518     0.00700
H167        H  0.99915490  0.69430968  0.05486712     0.15300
H168        H  0.06361404  0.66844792  0.98139350     0.15100
C169        C  0.22132519  0.53381349  0.02479362     0.86900
C170        C  0.21339670  0.49717092  0.03448749    -0.53400
C171        C  0.22943759  0.47402879  0.01530054     0.09800
C172        C  0.25187980  0.48909309  0.98871858     0.20800
C173        C  0.25997021  0.53480549  0.02703664    -0.54100
C174        C  0.27544603  0.51174138  0.00751401     0.09900
C175        C  0.21416005  0.53609421  0.98671279    -0.53600
C176        C  0.23022997  0.51228696  0.96811807     0.10500
H177        H  0.19822064  0.49043286  0.05585630     0.15000
H178        H  0.26530236  0.47006371  0.97370754     0.00700
H179        H  0.27461247  0.55083993  0.04253702     0.15300
H180        H  0.19874633  0.55536697  0.97558478     0.15100
C181        C  0.22487349  0.69851434  0.20497387     0.86900
C182        C  0.26224877  0.69500252  0.19573673    -0.53400
C183        C  0.28333633  0.71125253  0.21698882     0.09800
C184        C  0.26547183  0.72915449  0.24531105     0.20800
C185        C  0.22238969  0.68712298  0.24179074    -0.54100
C186        C  0.24425525  0.70281093  0.26243262     0.09900
C187        C  0.21978072  0.73711027  0.20703117    -0.53600
C188        C  0.24111090  0.75289392  0.22844160     0.10500
H189        H  0.27093930  0.68189566  0.17376625     0.15000
H190        H  0.28273554  0.74178323  0.26266179     0.00700
H191        H  0.20467884  0.66878416  0.25074043     0.15300
H192        H  0.20188787  0.75145974  0.19294429     0.15100
C193        C  0.13508328  0.61667806  0.11626955    -0.02100
C194        C  0.55915312  0.69928180  0.52037380     0.86900
C195        C  0.55770735  0.68921060  0.48292867    -0.53400
C196        C  0.53846373  0.71004195  0.46368219     0.09800
C197        C  0.52252887  0.73824700  0.48349542     0.20800
C198        C  0.57034177  0.73607625  0.51996711    -0.54100
C199        C  0.55110747  0.75615160  0.50041531     0.09900
C200        C  0.52185238  0.69995748  0.53025394    -0.53600
C201        C  0.50319416  0.72096314  0.51108168     0.10500
H202        H  0.56888755  0.66682062  0.47289315     0.15000
H203        H  0.50669424  0.75538295  0.46863085     0.00700
H204        H  0.59124778  0.74541627  0.53424490     0.15300
H205        H  0.51099948  0.68448551  0.54961813     0.15100
Zn206      Zn  0.30051477  0.77233636  0.51355031     1.49700
Zn207      Zn  0.29875866  0.71360757  0.46344131     1.49400
Zn208      Zn  0.24243500  0.71673293  0.52074805     1.49100
Zn209      Zn  0.24471365  0.76979582  0.45964363     1.49500
O210        O  0.27102068  0.74267197  0.48992545    -1.83700
O211        O  0.34877086  0.76280329  0.50536635    -0.74400
O212        O  0.29173662  0.66736358  0.47644646    -0.74200
O213        O  0.25353394  0.72994721  0.56895559    -0.73700
O214        O  0.34737057  0.72008305  0.47061702    -0.74400
O215        O  0.29512579  0.76579389  0.56156733    -0.74000
O216        O  0.25077867  0.66616858  0.51370609    -0.74600
O217        O  0.19757560  0.76200585  0.46846238    -0.74000
O218        O  0.28567647  0.71419525  0.41570769    -0.74700
O219        O  0.19306088  0.72758716  0.51164214    -0.74100
O220        O  0.24886929  0.75533119  0.41192068    -0.74600
O221        O  0.24910021  0.81902568  0.46858773    -0.74500
O222        O  0.28760482  0.82009969  0.50796317    -0.74300
C223        C  0.36344336  0.73973231  0.48931693     0.77500
C224        C  0.27213523  0.65131089  0.49518635     0.78000
C225        C  0.27555298  0.74978786  0.58040025     0.77000
C226        C  0.17996916  0.74592281  0.48908653     0.77300
C227        C  0.26461719  0.73101533  0.39905928     0.78500
C228        C  0.26553924  0.83474891  0.49061454     0.77500
Zn229      Zn  0.23184951  0.52432375  0.76280975     1.49700
Zn230      Zn  0.28742992  0.46584981  0.76593628     1.49400
Zn231      Zn  0.22813867  0.46643248  0.71086313     1.49100
Zn232      Zn  0.28518398  0.51990087  0.70589784     1.49500
O233        O  0.25876433  0.49365664  0.73676435    -1.83700
O234        O  0.24373591  0.52103919  0.81026147    -0.74400
O235        O  0.27883117  0.41574806  0.75543387    -0.74200
O236        O  0.18065225  0.46972205  0.72776726    -0.73700
O237        O  0.27598956  0.47615587  0.81530729    -0.74400
O238        O  0.18328613  0.51239071  0.76262791    -0.74000
O239        O  0.23964396  0.41922175  0.71655874    -0.74600
O240        O  0.27815950  0.50488971  0.65870606    -0.74000
O241        O  0.33719629  0.47744265  0.75698442    -0.74700
O242        O  0.23370357  0.47222148  0.66124295    -0.74100
O243        O  0.33286516  0.51216981  0.71401186    -0.74600
O244        O  0.27977897  0.56950391  0.71315573    -0.74500
O245        O  0.23986561  0.57202822  0.75145985    -0.74300
C246        C  0.25931551  0.50018026  0.82814772     0.77500
C247        C  0.25918614  0.40204113  0.73440904     0.78000
C248        C  0.16704210  0.48889912  0.74908207     0.77000
C249        C  0.25728966  0.48562097  0.64474765     0.77300
C250        C  0.35049732  0.49605400  0.73467357     0.78500
C251        C  0.26125723  0.58615336  0.73284998     0.77500
Zn252      Zn  0.03749016  0.71494900  0.71089644     1.49700
Zn253      Zn  0.03556539  0.77079126  0.76924509     1.49400
Zn254      Zn  0.98311871  0.77473298  0.71281036     1.49100
Zn255      Zn  0.97876566  0.71781418  0.76654566     1.49500
O256        O  0.00918758  0.74396083  0.73936204    -1.83700
O257        O  0.08716175  0.72528702  0.72025456    -0.74400
O258        O  0.03155188  0.81997489  0.76142755    -0.74200
O259        O  0.99416575  0.76918197  0.66562917    -0.73700
O260        O  0.08269020  0.76230611  0.76110521    -0.74400
O261        O  0.02798416  0.72536683  0.66162813    -0.74000
O262        O  0.99448019  0.82243994  0.72071292    -0.74600
O263        O  0.93104479  0.72354301  0.75214981    -0.74000
O264        O  0.02968235  0.75750866  0.81645168    -0.74700
O265        O  0.93423854  0.76449502  0.71494301    -0.74100
O266        O  0.98777041  0.72182445  0.81602134    -0.74600
O267        O  0.98682029  0.67047982  0.75830375    -0.74500
O268        O  0.02672409  0.66512475  0.72032877    -0.74300
C269        C  0.10028594  0.74493836  0.74155692     0.77500
C270        C  0.01552209  0.83645079  0.73964106     0.78000
C271        C  0.01086995  0.74876574  0.64837046     0.77000
C272        C  0.91766882  0.74213281  0.73016971     0.77300
C273        C  0.01097893  0.73690492  0.83144555     0.78500
C274        C  0.00551040  0.65235150  0.74049601     0.77500
C275        C  0.29705353  0.78136994  0.77826195     0.86900
C276        C  0.30676237  0.78996293  0.74192045    -0.53400
C277        C  0.28945399  0.77240502  0.71868587     0.09800
C278        C  0.26448563  0.74797020  0.73312037     0.20800
C279        C  0.25865586  0.78612493  0.77951120    -0.54100
C280        C  0.24171456  0.76828184  0.75573483     0.09900
C281        C  0.30099863  0.74265215  0.78048636    -0.53600
C282        C  0.28404471  0.72564228  0.75655966     0.10500
H283        H  0.32535221  0.80840149  0.73526465     0.15000
H284        H  0.25121141  0.73351068  0.71370785     0.00700
H285        H  0.24617113  0.80124507  0.79808850     0.15300
H286        H  0.31291656  0.72910990  0.80039691     0.15100
Zn287      Zn  0.49189039  0.69272775  0.20163002     1.49700
Zn288      Zn  0.48881852  0.74944578  0.25850767     1.49400
Zn289      Zn  0.54763541  0.69383709  0.25636486     1.49100
Zn290      Zn  0.54541380  0.74870964  0.20163836     1.49500
O291        O  0.51786051  0.72153397  0.23006210    -1.83700
O292        O  0.44418864  0.70196184  0.20728894    -0.74400
O293        O  0.49654228  0.73744823  0.30815780    -0.74200
O294        O  0.53863480  0.64504308  0.25091602    -0.73700
O295        O  0.43979767  0.74145177  0.24566993    -0.74400
O296        O  0.49722406  0.64511485  0.21428413    -0.74000
O297        O  0.53733339  0.70043864  0.30329461    -0.74600
O298        O  0.59311711  0.74761537  0.21528991    -0.74000
O299        O  0.49955155  0.79899282  0.25023096    -0.74700
O300        O  0.59597157  0.70743516  0.25304236    -0.74100
O301        O  0.53329885  0.79577513  0.20639383    -0.74600
O302        O  0.53902243  0.73956786  0.15350657    -0.74500
O303        O  0.49956950  0.70101878  0.15315839    -0.74300
C304        C  0.42658620  0.72157646  0.22465895     0.77500
C305        C  0.51749343  0.71718236  0.32120595     0.78000
C306        C  0.51595530  0.62996926  0.23484857     0.77000
C307        C  0.60951547  0.73105105  0.23675366     0.77300
C308        C  0.51673120  0.81278611  0.22716412     0.78500
C309        C  0.51841305  0.72142023  0.13796666     0.77500
C310        C  0.38516265  0.86599508  0.86575883    -0.02100
C311        C  0.47123575  0.95121236  0.77490771     0.86900
C312        C  0.46968633  0.94016591  0.73807582    -0.53400
C313        C  0.48692241  0.95991089  0.71692581     0.09800
C314        C  0.50607739  0.98771796  0.73382682     0.20800
C315        C  0.50963214  0.95086626  0.78171115    -0.54100
C316        C  0.52794227  0.97036014  0.75980616     0.09900
C317        C  0.46225792  0.98895215  0.77513953    -0.53600
C318        C  0.48081022  0.00793960  0.75346829     0.10500
H319        H  0.45809542  0.91747757  0.72937955     0.15000
H320        H  0.52012257  0.00341800  0.71614312     0.00700
H321        H  0.52104758  0.93571640  0.80096520     0.15300
H322        H  0.44411301  0.99970245  0.79209294     0.15100
C323        C  0.47707456  0.78031987  0.94808780     0.86900
C324        C  0.47344009  0.77789933  0.98666304    -0.53400
C325        C  0.49573215  0.75683355  0.00129676     0.09800
C326        C  0.51872632  0.73943154  0.97696469     0.20800
C327        C  0.51433393  0.78870406  0.94236293    -0.54100
C328        C  0.53571826  0.76694121  0.95738788     0.09900
C329        C  0.47379771  0.74312741  0.93707028    -0.53600
C330        C  0.49562816  0.72171413  0.95286671     0.10500
H331        H  0.45523290  0.79035921  0.00171762     0.15000
H332        H  0.53659371  0.72263764  0.98982997     0.00700
H333        H  0.52286361  0.80980754  0.92773360     0.15300
H334        H  0.45516949  0.73466614  0.91950359     0.15100
C335        C  0.72362150  0.51693464  0.52998474     0.86900
C336        C  0.76159085  0.51612351  0.53762662    -0.53400
C337        C  0.77955990  0.49622363  0.51697605     0.09800
C338        C  0.75900721  0.47959017  0.48995527     0.20800
C339        C  0.72218462  0.52755294  0.49273995    -0.54100
C340        C  0.74109717  0.50798493  0.47211392     0.09900
C341        C  0.71370140  0.47953394  0.53004701    -0.53600
C342        C  0.73197352  0.46024525  0.50847221     0.10500
H343        H  0.77441009  0.52982370  0.55678337     0.15000
H344        H  0.77438855  0.46406010  0.47295889     0.00700
H345        H  0.70818874  0.54889068  0.48372586     0.15300
H346        H  0.69462802  0.46922332  0.54621281     0.15100
Zn347      Zn  0.74014565  0.45333919  0.26950628     1.49700
Zn348      Zn  0.73381250  0.51143176  0.21340008     1.49400
Zn349      Zn  0.79428354  0.50877958  0.26839347     1.49100
Zn350      Zn  0.79292219  0.45654197  0.21236823     1.49500
O351        O  0.76449534  0.48322680  0.24047233    -1.83700
O352        O  0.69233808  0.45884775  0.26262199    -0.74400
O353        O  0.74086629  0.56092154  0.22697188    -0.74200
O354        O  0.78545239  0.50245176  0.31749393    -0.73700
O355        O  0.68479711  0.49669292  0.22274037    -0.74400
O356        O  0.74516819  0.46479587  0.31777972    -0.74000
O357        O  0.78334205  0.55528705  0.26197924    -0.74600
O358        O  0.84062773  0.46833620  0.21472851    -0.74000
O359        O  0.74507337  0.50560934  0.16287262    -0.74700
O360        O  0.84265435  0.50679197  0.25406178    -0.74100
O361        O  0.78303477  0.46546624  0.16596185    -0.74600
O362        O  0.78542877  0.40825777  0.21709834    -0.74500
O363        O  0.74760066  0.40541429  0.25749642    -0.74300
C364        C  0.67337245  0.47560261  0.24386221     0.77500
C365        C  0.76280143  0.57342249  0.24640038     0.78000
C366        C  0.76305892  0.48598757  0.33285151     0.77000
C367        C  0.85661094  0.48998230  0.23106923     0.77300
C368        C  0.76519325  0.48505847  0.14893894     0.78500
C369        C  0.76516801  0.39178023  0.23486813     0.77500
C370        C  0.71736946  0.19963600  0.20683747     0.86900
C371        C  0.71898822  0.23578436  0.19334209    -0.53400
C372        C  0.73965066  0.25590916  0.21111480     0.09800
C373        C  0.75733344  0.23857623  0.23985010     0.20800
C374        C  0.75469772  0.18870721  0.20611233    -0.54100
C375        C  0.77521038  0.20921076  0.22395638     0.09900
C376        C  0.70902803  0.20300400  0.24435999    -0.53600
C377        C  0.72994840  0.22376833  0.26142078     0.10500
H378        H  0.70612525  0.24446413  0.17127772     0.15000
H379        H  0.77454216  0.25503232  0.25380756     0.00700
H380        H  0.76423875  0.16782989  0.19185252     0.15300
H381        H  0.68918772  0.18916387  0.25646032     0.15100
Zn382      Zn  0.73543320  0.01463953  0.71290334     1.49700
Zn383      Zn  0.73626260  0.96131506  0.77322178     1.49400
Zn384      Zn  0.79175300  0.95655039  0.71989871     1.49100
Zn385      Zn  0.79180023  0.01582131  0.77066061     1.49500
O386        O  0.76349522  0.98796096  0.74348452    -1.83700
O387        O  0.68553703  0.00532776  0.72402693    -0.74400
O388        O  0.73675931  0.91287866  0.76299859    -0.74200
O389        O  0.78807666  0.96451458  0.67223789    -0.73700
O390        O  0.68915843  0.97190586  0.76795493    -0.74400
O391        O  0.74687719  0.00063407  0.66403935    -0.74000
O392        O  0.77481317  0.90954350  0.72307896    -0.74600
O393        O  0.84046074  0.00798327  0.76056217    -0.74000
O394        O  0.74319627  0.97152254  0.82048120    -0.74700
O395        O  0.84072433  0.96324055  0.72804543    -0.74100
O396        O  0.77774146  0.01455763  0.81933578    -0.74600
O397        O  0.78561572  0.06263301  0.75802310    -0.74500
O398        O  0.74540661  0.06516278  0.72009067    -0.74300
C399        C  0.67184139  0.98816082  0.74730254     0.77500
C400        C  0.75177330  0.89651332  0.74052491     0.78000
C401        C  0.76943089  0.98086279  0.65281192     0.77000
C402        C  0.85588341  0.98711472  0.74224508     0.77300
C403        C  0.75752190  0.99559993  0.83488352     0.78500
C404        C  0.76687080  0.07932738  0.73889229     0.77500
C405        C  0.80064363  0.27566576  0.77762549     0.86900
C406        C  0.76325162  0.28629926  0.77576479    -0.53400
C407        C  0.74451358  0.26805821  0.75364229     0.09800
C408        C  0.76447730  0.24087963  0.73631834     0.20800
C409        C  0.79828283  0.23762611  0.78597898    -0.54100
C410        C  0.77962069  0.21982636  0.76376326     0.09900
C411        C  0.81278312  0.27676233  0.74108315    -0.53600
C412        C  0.79371214  0.25837265  0.71996722     0.10500
H413        H  0.75251229  0.30564658  0.79129451     0.15000
H414        H  0.74971157  0.22560629  0.71876345     0.00700
H415        H  0.80915034  0.22546446  0.80739955     0.15300
H416        H  0.83447232  0.29062004  0.73279046     0.15100
Zn417      Zn  0.78900771  0.25890946  0.46519314     1.49700
Zn418      Zn  0.73409022  0.25241451  0.52355132     1.49400
Zn419      Zn  0.73327059  0.19925273  0.46577423     1.49100
Zn420      Zn  0.78925079  0.19836667  0.51910972     1.49500
O421        O  0.76176160  0.22774427  0.49256116    -1.83700
O422        O  0.77613641  0.30767139  0.47622575    -0.74400
O423        O  0.68556529  0.24663605  0.51429100    -0.74200
O424        O  0.74199217  0.20946142  0.41894398    -0.73700
O425        O  0.73957993  0.30042111  0.51706887    -0.74400
O426        O  0.77861345  0.25076928  0.41515200    -0.74000
O427        O  0.68452314  0.21281339  0.47056378    -0.74600
O428        O  0.78396223  0.15030008  0.50862786    -0.74000
O429        O  0.74836711  0.24706089  0.57090532    -0.74700
O430        O  0.74456652  0.14936168  0.47019146    -0.74100
O431        O  0.78715351  0.20782680  0.56766483    -0.74600
O432        O  0.83583087  0.20740416  0.50986432    -0.74500
O433        O  0.83929761  0.25116760  0.47613815    -0.74300
C434        C  0.75607814  0.31939355  0.49808732     0.77500
C435        C  0.66996608  0.23292514  0.49041920     0.78000
C436        C  0.75899706  0.22965268  0.40162527     0.77000
C437        C  0.76658731  0.13439006  0.48762528     0.77300
C438        C  0.77127861  0.22961742  0.58414681     0.78500
C439        C  0.85303537  0.22877274  0.49438714     0.77500
C440        C  0.88970882  0.85690842  0.36242380    -0.02100
C441        C  0.80449502  0.93724860  0.45685798     0.86900
C442        C  0.81563371  0.97440142  0.45566086    -0.53400
C443        C  0.79606870  0.99509398  0.47445065     0.09800
C444        C  0.76716201  0.97781366  0.49151587     0.20800
C445        C  0.80258574  0.92903168  0.49482927    -0.54100
C446        C  0.78242595  0.95036735  0.51272064     0.09900
C447        C  0.76771760  0.93936877  0.44520456    -0.53600
C448        C  0.74853791  0.96031858  0.46376591     0.10500
H449        H  0.83600840  0.98371708  0.44051398     0.15000
H450        H  0.75145772  0.99555177  0.50581987     0.00700
H451        H  0.81636102  0.90878019  0.50634732     0.15300
H452        H  0.75775484  0.92672053  0.42363737     0.15100
C453        C  0.98305712  0.77719252  0.45010958     0.86900
C454        C  0.02163729  0.78112814  0.44886846    -0.53400
C455        C  0.03822136  0.76132563  0.47119931     0.09800
C456        C  0.01564084  0.73908380  0.49172491     0.20800
C457        C  0.97854905  0.73913070  0.44431547    -0.54100
C458        C  0.99588096  0.71934750  0.46626429     0.09900
C459        C  0.97397940  0.78253735  0.48730013    -0.53600
C460        C  0.99102579  0.76218204  0.50859517     0.10500
H461        H  0.03543936  0.79598698  0.43125602     0.15000
H462        H  0.02933610  0.72316760  0.50980886     0.00700
H463        H  0.96446335  0.72930035  0.42363033     0.15300
H464        H  0.95582488  0.80070468  0.49585786     0.15100
C465        C  0.80468839  0.77061894  0.27307992     0.86900
C466        C  0.76727961  0.78051556  0.27573979    -0.53400
C467        C  0.74698048  0.76220168  0.25558429     0.09800
C468        C  0.76488942  0.73571315  0.23543537     0.20800
C469        C  0.80373887  0.73271890  0.28131157    -0.54100
C470        C  0.78316452  0.71469527  0.26105651     0.09900
C471        C  0.81251832  0.77253652  0.23511849    -0.53600
C472        C  0.79170954  0.75366417  0.21569936     0.10500
H473        H  0.75759161  0.79920444  0.29269187     0.15000
H474        H  0.74760903  0.72134274  0.21942268     0.00700
H475        H  0.81638440  0.72130268  0.30221211     0.15300
H476        H  0.83241361  0.78760697  0.22473616     0.15100
C477        C  0.29836499  0.45424709  0.44845350     0.86900
C478        C  0.30012873  0.44283256  0.48548350    -0.53400
C479        C  0.27874350  0.45960729  0.50612537     0.09800
C480        C  0.25782997  0.48576502  0.48842969     0.20800
C481        C  0.26121636  0.45132500  0.43911727    -0.54100
C482        C  0.24038199  0.46762622  0.46032706     0.09900
C483        C  0.30464241  0.49256268  0.45094539    -0.53600
C484        C  0.28281106  0.50904279  0.47175580     0.10500
H485        H  0.31668727  0.42334252  0.49428005     0.15000
H486        H  0.24029863  0.49842556  0.50569257     0.00700
H487        H  0.25226584  0.43721109  0.41793046     0.15300
H488        H  0.32430867  0.50547555  0.43808962     0.15100
Zn489      Zn  0.47906183  0.45849720  0.01322732     1.49700
Zn490      Zn  0.47632759  0.51354428  0.95698756     1.49400
Zn491      Zn  0.53359714  0.51815947  0.01310295     1.49100
Zn492      Zn  0.53193915  0.45967572  0.95739456     1.49500
O493        O  0.50564075  0.48817774  0.98595613    -1.83700
O494        O  0.43012035  0.46495279  0.00557187    -0.74400
O495        O  0.48049886  0.56166489  0.96489913    -0.74200
O496        O  0.52343618  0.50910310  0.06339629    -0.73700
O497        O  0.42870164  0.50309381  0.96527583    -0.74400
O498        O  0.48497148  0.46948995  0.05997975    -0.74000
O499        O  0.52402610  0.56732922  0.99852370    -0.74600
O500        O  0.57863906  0.46729429  0.96653645    -0.74000
O501        O  0.48945778  0.51075888  0.90891779    -0.74700
O502        O  0.58327439  0.50730500  0.00419147    -0.74100
O503        O  0.52885544  0.47223105  0.90956548    -0.74600
O504        O  0.52770713  0.41084090  0.96678050    -0.74500
O505        O  0.49509521  0.41074720  0.01135626    -0.74300
C506        C  0.41410260  0.48461280  0.98648236     0.77500
C507        C  0.50157839  0.57988615  0.97948930     0.78000
C508        C  0.50326866  0.48841308  0.07710591     0.77000
C509        C  0.59637104  0.48606202  0.98434341     0.77300
C510        C  0.51232997  0.49451658  0.89424489     0.78500
C511        C  0.51476962  0.39578017  0.99148754     0.77500
C512        C  0.47676276  0.43509814  0.27300361     0.86900
C513        C  0.47330916  0.43393334  0.23414948    -0.53400
C514        C  0.49487105  0.45503250  0.21757730     0.09800
C515        C  0.51713938  0.47472952  0.24092769     0.20800
C516        C  0.51425983  0.42840124  0.27938531    -0.54100
C517        C  0.53498795  0.44912306  0.26219342     0.09900
C518        C  0.47152305  0.47267518  0.28026721    -0.53600
C519        C  0.49299222  0.49309674  0.26365135     0.10500
H520        H  0.45472857  0.41990371  0.22082731     0.15000
H521        H  0.53454620  0.49209558  0.22820947     0.00700
H522        H  0.52341580  0.40872734  0.29557652     0.15300
H523        H  0.45082773  0.48209280  0.29493336     0.15100
C524        C  0.38551116  0.36190775  0.36849540    -0.02100
C525        C  0.47395647  0.27626133  0.45679562     0.86900
C526        C  0.47170349  0.23879498  0.44758401    -0.53400
C527        C  0.49239040  0.21868764  0.46577423     0.09800
C528        C  0.51210002  0.23708046  0.49244974     0.20800
C529        C  0.46619962  0.27620760  0.49505199    -0.54100
C530        C  0.48617474  0.25540316  0.51339939     0.09900
C531        C  0.51170165  0.28458597  0.45493297    -0.53600
C532        C  0.53139713  0.26416591  0.47394966     0.10500
H533        H  0.45534988  0.22905687  0.42848814     0.15000
H534        H  0.52840080  0.22039605  0.50741776     0.00700
H535        H  0.44656762  0.29029400  0.50704179     0.15300
H536        H  0.52176201  0.30495891  0.44025308     0.15100
Zn537      Zn  0.49057497  0.95607270  0.46487788     1.49700
Zn538      Zn  0.49237036  0.01530389  0.51899332     1.49400
Zn539      Zn  0.54935921  0.96159840  0.51853408     1.49100
Zn540      Zn  0.54616142  0.01530978  0.46369663     1.49500
O541        O  0.51902895  0.98656192  0.49102106    -1.83700
O542        O  0.44066489  0.96419495  0.47574962    -0.74400
O543        O  0.49905093  0.00496708  0.56713589    -0.74200
O544        O  0.54397660  0.91419020  0.51113123    -0.73700
O545        O  0.44554931  0.00557278  0.51194025    -0.74400
O546        O  0.50349395  0.90741668  0.47425985    -0.74000
O547        O  0.53839887  0.96603256  0.56620393    -0.74600
O548        O  0.59515173  0.00903881  0.46921401    -0.74000
O549        O  0.49465162  0.06380074  0.50683852    -0.74700
O550        O  0.59708745  0.96845779  0.50670504    -0.74100
O551        O  0.53222385  0.06292604  0.46626416    -0.74600
O552        O  0.53957971  0.00283520  0.41755089    -0.74500
O553        O  0.49973469  0.96448416  0.41560044    -0.74300
C554        C  0.42771049  0.98585991  0.49522829     0.77500
C555        C  0.51673885  0.98303138  0.58176642     0.78000
C556        C  0.52579266  0.89557477  0.49362813     0.77000
C557        C  0.61128451  0.98723314  0.48552778     0.77300
C558        C  0.51079519  0.07835378  0.48379040     0.78500
C559        C  0.52109819  0.98328495  0.40133817     0.77500
C560        C  0.54984532  0.01184193  0.20352319     0.86900
C561        C  0.51240735  0.01467223  0.19419656    -0.53400
C562        C  0.49195956  0.99430965  0.21251428     0.09800
C563        C  0.51036603  0.97360206  0.23855003     0.20800
C564        C  0.55092554  0.01802548  0.24152699    -0.54100
C565        C  0.52957244  0.99857013  0.25955821     0.09900
C566        C  0.55737800  0.97369788  0.20070010    -0.53600
C567        C  0.53674644  0.95417063  0.21947729     0.10500
H568        H  0.50301500  0.03138641  0.17509315     0.15000
H569        H  0.49384332  0.95717186  0.25343920     0.00700
H570        H  0.56736181  0.03594506  0.25317039     0.15300
H571        H  0.57724363  0.96234639  0.18647919     0.15100
C572        C  0.05209900  0.52561422  0.20170229     0.86900
C573        C  0.05623609  0.48697681  0.20356727    -0.53400
C574        C  0.03190754  0.47139071  0.22194237     0.09800
C575        C  0.00656236  0.49535330  0.23699932     0.20800
C576        C  0.01612764  0.53081441  0.18897199    -0.54100
C577        C  0.99259899  0.51489737  0.20763048     0.09900
C578        C  0.05111596  0.53561195  0.23898375    -0.53600
C579        C  0.02684255  0.52012029  0.25704225     0.10500
H580        H  0.07639693  0.47283560  0.19262828     0.15000
H581        H  0.98700238  0.48248446  0.25171975     0.00700
H582        H  0.01021453  0.54471400  0.16652594     0.15300
H583        H  0.06891155  0.55236582  0.25040207     0.15100
Zn584      Zn  0.04016777  0.51420038  0.51693348     1.49700
Zn585      Zn  0.98102623  0.51345049  0.46203988     1.49400
Zn586      Zn  0.03721502  0.46034869  0.45698024     1.49100
Zn587      Zn  0.98490716  0.45578901  0.51348355     1.49500
O588        O  0.01141803  0.48658455  0.48800852    -1.83700
O589        O  0.03086359  0.56422891  0.50697136    -0.74400
O590        O  0.98862818  0.50976676  0.41297987    -0.74200
O591        O  0.08443252  0.46670731  0.46533314    -0.73700
O592        O  0.98946649  0.56024913  0.47061748    -0.74400
O593        O  0.08932820  0.50411289  0.50581727    -0.74000
O594        O  0.03160505  0.47516698  0.41036926    -0.74600
O595        O  0.99766720  0.40867938  0.50570039    -0.74000
O596        O  0.93363688  0.50711325  0.47495917    -0.74700
O597        O  0.03117258  0.41155081  0.46188974    -0.74100
O598        O  0.93621263  0.46319284  0.50846408    -0.74600
O599        O  0.99259586  0.46275215  0.56077741    -0.74500
O600        O  0.03060439  0.50244756  0.56665866    -0.74300
C601        C  0.00932613  0.57767999  0.48760903     0.77500
C602        C  0.01168055  0.49545556  0.39658683     0.78000
C603        C  0.10210312  0.48439192  0.48431383     0.77000
C604        C  0.01657797  0.39485762  0.48442868     0.77300
C605        C  0.91976779  0.48617658  0.49417054     0.78500
C606        C  0.01031901  0.48113929  0.57907593     0.77500
C607        C  0.05349291  0.19933811  0.51720845     0.86900
C608        C  0.05093190  0.19014653  0.47950056    -0.53400
C609        C  0.02904315  0.20984748  0.46216378     0.09800
C610        C  0.01171662  0.23584741  0.48323288     0.20800
C611        C  0.06123318  0.23688087  0.51746658    -0.54100
C612        C  0.03929132  0.25545485  0.49959354     0.09900
C613        C  0.01657991  0.19717255  0.52931874    -0.53600
C614        C  0.99489418  0.21672495  0.51130787     0.10500
H615        H  0.06404536  0.17007257  0.46726035     0.15000
H616        H  0.99456779  0.25186383  0.46848936     0.00700
H617        H  0.08188685  0.24781241  0.53097783     0.15300
H618        H  0.00881989  0.18210660  0.55035125     0.15100
C619        C  0.29933159  0.95806873  0.94959159     0.86900
C620        C  0.30844115  0.94858889  0.98588530    -0.53400
C621        C  0.29010400  0.96495551  0.00921545     0.09800
C622        C  0.26473371  0.98911936  0.99525965     0.20800
C623        C  0.26094595  0.95250194  0.94768674    -0.54100
C624        C  0.24299085  0.96921076  0.97174634     0.09900
C625        C  0.30263664  0.99685930  0.94907222    -0.53600
C626        C  0.28394553  0.01265619  0.97291281     0.10500
H627        H  0.32738198  0.93038443  0.99247323     0.15000
H628        H  0.25085783  0.00232152  0.01522946     0.00700
H629        H  0.24930248  0.93731199  0.92870439     0.15300
H630        H  0.31683326  0.01132706  0.93168781     0.15100
Zn631      Zn  0.03943974  0.96333002  0.95388614     1.49700
Zn632      Zn  0.98019674  0.01143651  0.95294191     1.49400
Zn633      Zn  0.98435387  0.95652121  0.00872583     1.49100
Zn634      Zn  0.03453935  0.01974287  0.01260074     1.49500
O635        O  0.01016809  0.98846676  0.98293152    -1.83700
O636        O  0.03703378  0.97639419  0.90600000    -0.74400
O637        O  0.93299593  0.00297769  0.96509233    -0.74200
O638        O  0.00113357  0.90953446  0.00259733    -0.73700
O639        O  0.99096048  0.00638681  0.90427793    -0.74400
O640        O  0.03774318  0.91420418  0.96129684    -0.74000
O641        O  0.93463728  0.96393007  0.00432221    -0.74600
O642        O  0.02120118  0.00995914  0.06233973    -0.74000
O643        O  0.98441007  0.05957608  0.95880561    -0.74700
O644        O  0.99066019  0.96446423  0.05626259    -0.74100
O645        O  0.02076324  0.06875784  0.99951752    -0.74600
O646        O  0.08597027  0.01126310  0.00577355    -0.74500
O647        O  0.08488090  0.97376420  0.96512140    -0.74300
C648        C  0.01657814  0.99434031  0.88992732     0.77500
C649        C  0.91859365  0.98523354  0.98708234     0.78000
C650        C  0.02316028  0.89693904  0.98347834     0.77000
C651        C  0.00400351  0.98605567  0.07480253     0.77300
C652        C  0.00038622  0.07935745  0.97722616     0.78500
C653        C  0.10088452  0.99183309  0.98514080     0.77500
C654        C  0.96896028  0.95001903  0.27403968     0.86900
C655        C  0.00636416  0.94006903  0.27698904    -0.53400
C656        C  0.02713151  0.95825155  0.25696157     0.09800
C657        C  0.00938567  0.98501752  0.23671497     0.20800
C658        C  0.96941302  0.98797160  0.28190734    -0.54100
C659        C  0.99023655  0.00586798  0.26179462     0.09900
C660        C  0.96151592  0.94844871  0.23607312    -0.53600
C661        C  0.98279002  0.96703262  0.21662968     0.10500
H662        H  0.01552990  0.92065274  0.29347886     0.15000
H663        H  0.02680044  0.00009210  0.22132204     0.00700
H664        H  0.95570337  0.00015564  0.30160179     0.15300
H665        H  0.94047686  0.93495726  0.22615975     0.15100
C666        C  0.97379510  0.27765415  0.94472008     0.86900
C667        C  0.96893987  0.28165309  0.98290467    -0.53400
C668        C  0.98494346  0.25792969  0.00156814     0.09800
C669        C  0.00395534  0.23238607  0.98095193     0.20800
C670        C  0.01262700  0.27661462  0.94093828    -0.54100
C671        C  0.02811730  0.25289958  0.96018439     0.09900
C672        C  0.96312884  0.24113666  0.93742897    -0.53600
C673        C  0.97876497  0.21780172  0.95683156     0.10500
H674        H  0.95443833  0.30161592  0.99399407     0.15000
H675        H  0.01660197  0.21327780  0.99641534     0.00700
H676        H  0.02768301  0.29309844  0.92620659     0.15300
H677        H  0.94461633  0.23451437  0.91894956     0.15100
Zn678      Zn  0.28858576  0.21746381  0.96833110     1.49700
Zn679      Zn  0.23060184  0.21541173  0.02492262     1.49400
Zn680      Zn  0.28798526  0.27189112  0.02275128     1.49100
Zn681      Zn  0.23300366  0.27168447  0.96630871     1.49500
O682        O  0.25930455  0.24379676  0.99614296    -1.83700
O683        O  0.28032726  0.17111190  0.97696367    -0.74400
O684        O  0.24072216  0.22533122  0.07470079    -0.74200
O685        O  0.33658684  0.26266977  0.01593642    -0.73700
O686        O  0.24050827  0.16567750  0.01499543    -0.74400
O687        O  0.33659569  0.22119166  0.97967452    -0.74000
O688        O  0.28186560  0.26207276  0.07047141    -0.74600
O689        O  0.23900340  0.32061003  0.97633309    -0.74000
O690        O  0.18107713  0.22549729  0.01455214    -0.74700
O691        O  0.27557917  0.31999757  0.01784381    -0.74100
O692        O  0.18545335  0.26490963  0.97577606    -0.74600
O693        O  0.23783911  0.25787152  0.91753872    -0.74500
O694        O  0.27943456  0.22152333  0.91974095    -0.74300
C695        C  0.26184542  0.15306266  0.99488970     0.77500
C696        C  0.26271577  0.24411694  0.08799864     0.78000
C697        C  0.35175700  0.23985339  0.99999706     0.77000
C698        C  0.25517249  0.33551094  0.99915320     0.77300
C699        C  0.16786665  0.24644607  0.99439182     0.78500
C700        C  0.25705766  0.23681462  0.90339938     0.77500
Zn701      Zn  0.22971775  0.01606554  0.26467614     1.49700
Zn702      Zn  0.28572896  0.01592125  0.21018316     1.49400
Zn703      Zn  0.28852394  0.96024444  0.26912935     1.49100
Zn704      Zn  0.23243931  0.95952467  0.21127760     1.49500
O705        O  0.25963925  0.98747419  0.23946301    -1.83700
O706        O  0.23980830  0.06471554  0.25769824    -0.74400
O707        O  0.33341631  0.00913322  0.21874855    -0.74200
O708        O  0.27941793  0.97405637  0.31841265    -0.73700
O709        O  0.27892229  0.06440205  0.21849417    -0.74400
O710        O  0.23826881  0.01057975  0.31215791    -0.74000
O711        O  0.33788521  0.96929550  0.25708928    -0.74600
O712        O  0.24237929  0.91276717  0.22030911    -0.74000
O713        O  0.28080400  0.00393512  0.16215163    -0.74700
O714        O  0.27926022  0.90974161  0.26126005    -0.74100
O715        O  0.24367436  0.96345029  0.16284289    -0.74600
O716        O  0.18368899  0.96397074  0.22136409    -0.74500
O717        O  0.18141849  0.00319153  0.26014626    -0.74300
C718        C  0.26111208  0.07979383  0.23963783     0.77500
C719        C  0.35102532  0.99006691  0.23672624     0.78000
C720        C  0.25813182  0.99455730  0.33067519     0.77000
C721        C  0.26058168  0.89572231  0.23960157     0.77300
C722        C  0.26446092  0.98141794  0.14716775     0.78500
C723        C  0.16736741  0.98095460  0.24261640     0.77500
Zn724      Zn  0.97727742  0.26656054  0.26180408     1.49700
Zn725      Zn  0.98151088  0.21058162  0.20443095     1.49400
Zn726      Zn  0.03687539  0.26708274  0.20658807     1.49100
Zn727      Zn  0.03547996  0.21039829  0.25903700     1.49500
O728        O  0.00711515  0.23933838  0.23323849    -1.83700
O729        O  0.92818693  0.25359981  0.25284911    -0.74400
O730        O  0.99050841  0.22162349  0.15718430    -0.74200
O731        O  0.02424798  0.31368801  0.21231574    -0.73700
O732        O  0.93343771  0.21860731  0.21030902    -0.74400
O733        O  0.98471151  0.31662241  0.25104201    -0.74000
O734        O  0.03056729  0.25978457  0.15724619    -0.74600
O735        O  0.08346018  0.22072495  0.25512364    -0.74000
O736        O  0.98687192  0.16148987  0.21478455    -0.74700
O737        O  0.08490081  0.26552935  0.22292667    -0.74100
O738        O  0.02595665  0.16201066  0.25351237    -0.74600
O739        O  0.02786473  0.21896745  0.30593991    -0.74500
O740        O  0.98826200  0.25742491  0.31126649    -0.74300
C741        C  0.91544312  0.23471925  0.23064785     0.77500
C742        C  0.00948072  0.24185569  0.14187862     0.78000
C743        C  0.00437537  0.33056476  0.23007712     0.77000
C744        C  0.09914265  0.24525769  0.24279200     0.77300
C745        C  0.00486088  0.14632252  0.23604537     0.78500
C746        C  0.00975223  0.23748976  0.32384636     0.77500
C747        C  0.29484121  0.27429493  0.28651502     0.86900
C748        C  0.29567366  0.28377299  0.24877813    -0.53400
C749        C  0.27439556  0.26529290  0.22946142     0.09800
C750        C  0.25514109  0.23912526  0.24908731     0.20800
C751        C  0.25739416  0.27668687  0.29615940    -0.54100
C752        C  0.23691212  0.25790559  0.27654261     0.09900
C753        C  0.30297957  0.23647277  0.28555366    -0.53600
C754        C  0.28169414  0.21829919  0.26646180     0.10500
H755        H  0.31219434  0.30240944  0.23827156     0.15000
H756        H  0.23830907  0.22407043  0.23319209     0.00700
H757        H  0.24807923  0.29205801  0.31635034     0.15300
H758        H  0.32500964  0.22531364  0.29632116     0.15100
C759        C  0.63290000  0.10855345  0.12345612    -0.02100
C760        C  0.63845904  0.61054917  0.61113285    -0.02100
C761        C  0.15208380  0.22217108  0.26395899    -0.11900
C762        C  0.13408200  0.25021787  0.25355611     0.05100
C763        C  0.14846210  0.28207665  0.25780352    -0.07200
C764        C  0.18111356  0.28489640  0.27029407    -0.07900
C765        C  0.19994485  0.25636844  0.27784652    -0.02500
C766        C  0.18437715  0.22499994  0.27626863     0.04400
N767        N  0.20108628  0.19563763  0.28750593     0.66900
H768        H  0.14099690  0.19763336  0.26258002     0.15800
H769        H  0.19268578  0.30921175  0.27137624     0.15500
N770        N  0.13058170  0.31165450  0.24908139     0.74600
O771        O  0.20669098  0.19230235  0.31821220    -0.38900
O772        O  0.20250134  0.17040882  0.26886815    -0.38800
O773        O  0.11969317  0.33056793  0.27168543    -0.39500
O774        O  0.13008498  0.32137357  0.21917465    -0.39600
C775        C  0.27104170  0.12588496  0.27895864    -0.11900
C776        C  0.26782805  0.11527318  0.24582378     0.05100
C777        C  0.27469693  0.13779494  0.21981599    -0.07200
C778        C  0.28178659  0.17101819  0.22724974    -0.07900
C779        C  0.28367549  0.18201478  0.26038856    -0.02500
C780        C  0.27991822  0.15873360  0.28647315     0.04400
N781        N  0.28484879  0.16791321  0.32053391     0.66900
H782        H  0.26766470  0.10824085  0.29915735     0.15800
H783        H  0.28479500  0.18862674  0.20696395     0.15500
N784        N  0.27317587  0.12764674  0.18577805     0.74600
O785        O  0.26253554  0.16161444  0.34178787    -0.38900
O786        O  0.31404851  0.17355571  0.33053135    -0.38800
O787        O  0.24678027  0.13220980  0.16937861    -0.39500
O788        O  0.29953068  0.11915762  0.17082640    -0.39600
C789        C  0.23785519  0.25549062  0.14326750    -0.11900
C790        C  0.26600520  0.24708503  0.12457511     0.05100
C791        C  0.29774856  0.24805983  0.13993513    -0.07200
C792        C  0.30051090  0.25717199  0.17363852    -0.07900
C793        C  0.27221397  0.26537752  0.19242254    -0.02500
C794        C  0.24071854  0.26523519  0.17665234     0.04400
N795        N  0.21164460  0.27678210  0.19377853     0.66900
H796        H  0.21371321  0.25647386  0.13126707     0.15800
H797        H  0.32459731  0.25589633  0.18571008     0.15500
N798        N  0.32717749  0.23849609  0.12197277     0.74600
O799        O  0.18410454  0.26229472  0.18961258    -0.38900
O800        O  0.21216992  0.30496431  0.20757752    -0.38800
O801        O  0.35362895  0.25513896  0.12491185    -0.39500
O802        O  0.32765691  0.21174959  0.10552031    -0.39600
C803        C  0.00687744  0.27789065  0.09129923    -0.11900
C804        C  0.00471366  0.24596202  0.10572080     0.05100
C805        C  0.99319475  0.21923426  0.08631097    -0.07200
C806        C  0.98439823  0.22477945  0.05328221    -0.07900
C807        C  0.98705442  0.25628149  0.03841163    -0.02500
C808        C  0.99811768  0.28321976  0.05783781     0.04400
N809        N  0.00217899  0.31559159  0.04361288     0.66900
H810        H  0.01497258  0.29884766  0.10614522     0.15800
H811        H  0.97752418  0.20356260  0.03860106     0.15500
N812        N  0.99167050  0.18595510  0.09927698     0.74600
O813        O  0.98028957  0.33766033  0.04851155    -0.38900
O814        O  0.02958296  0.32348860  0.03037931    -0.38800
O815        O  0.96555093  0.16890806  0.09576081    -0.39500
O816        O  0.01747711  0.17240041  0.11111846    -0.39600
C817        C  0.11347869  0.21939797  0.98522798    -0.11900
C818        C  0.13136474  0.24874253  0.99012244     0.05100
C819        C  0.11565235  0.27971672  0.98365489    -0.07200
C820        C  0.08260330  0.28056715  0.97223912    -0.07900
C821        C  0.06476001  0.25108203  0.96676220    -0.02500
C822        C  0.08087799  0.22024164  0.97289172     0.04400
N823        N  0.06596029  0.18954640  0.96322150     0.66900
H824        H  0.12581634  0.19554312  0.98834631     0.15800
H825        H  0.07049512  0.30446651  0.96876621     0.15500
N826        N  0.13283270  0.31050251  0.98903467     0.74600
O827        O  0.06339377  0.18326516  0.93258724    -0.38900
O828        O  0.06384513  0.16601081  0.98402021    -0.38800
O829        O  0.13185449  0.33323462  0.96728337    -0.39500
O830        O  0.14719741  0.31587438  0.01642375    -0.39600
C831        C  0.02652302  0.09225672  0.25719961    -0.11900
C832        C  0.00040369  0.11015754  0.24227197     0.05100
C833        C  0.96985465  0.09373031  0.23635525    -0.07200
C834        C  0.96611453  0.06020105  0.24544823    -0.07900
C835        C  0.99229122  0.04255431  0.26039577    -0.02500
C836        C  0.02278471  0.05877846  0.26623143     0.04400
N837        N  0.05005924  0.04162283  0.28161030     0.66900
H838        H  0.05001438  0.10445627  0.26222990     0.15800
H839        H  0.94303745  0.04751468  0.23970676     0.15500
N840        N  0.94232821  0.11068549  0.22138170     0.74600
O841        O  0.07941916  0.04617188  0.27126322    -0.38900
O842        O  0.04536027  0.02554488  0.30824106    -0.38800
O843        O  0.93441053  0.10435812  0.19167683    -0.39500
O844        O  0.92360375  0.12887006  0.23893579    -0.39600
C845        C  0.08302699  0.96417302  0.28308212    -0.11900
C846        C  0.06395816  0.95566344  0.25519969     0.05100
C847        C  0.07964460  0.95369893  0.22378191    -0.07200
C848        C  0.11309952  0.96253751  0.22027854    -0.07900
C849        C  0.13165838  0.97336843  0.24761470    -0.02500
C850        C  0.11655860  0.97352598  0.27950762     0.04400
N851        N  0.13479292  0.98328756  0.30840877     0.66900
H852        H  0.07130662  0.96574584  0.30735048     0.15800
H853        H  0.12465261  0.96099119  0.19590724     0.15500
N854        N  0.06185178  0.94224514  0.19523866     0.74600
O855        O  0.13633630  0.01366715  0.31620263    -0.38900
O856        O  0.14454392  0.96145869  0.32886233    -0.38800
O857        O  0.06436463  0.95749767  0.16782100    -0.39500
O858        O  0.04838944  0.91392599  0.19604557    -0.39600
C859        C  0.99337909  0.16282155  0.93347364    -0.11900
C860        C  0.97400224  0.18111576  0.95597212     0.05100
C861        C  0.96000661  0.16447243  0.98380231    -0.07200
C862        C  0.97128997  0.13208982  0.99189925    -0.07900
C863        C  0.99400533  0.11520827  0.97135735    -0.02500
C864        C  0.00309032  0.12996794  0.94070849     0.04400
N865        N  0.02274555  0.11202513  0.91696547     0.66900
H866        H  0.00306781  0.17491735  0.91134631     0.15800
H867        H  0.96125315  0.11931887  0.01347844     0.15500
N868        N  0.93358522  0.17957385  0.00302543     0.74600
O869        O  0.01091576  0.10537047  0.88867070    -0.38900
O870        O  0.05204312  0.10308386  0.92407458    -0.38800
O871        O  0.91840238  0.20497852  0.99226067    -0.39500
O872        O  0.92322631  0.16587842  0.02941971    -0.39600
C873        C  0.98996455  0.95017356  0.12368273    -0.11900
C874        C  0.99801378  0.98212555  0.11130000     0.05100
C875        C  0.99651168  0.00925976  0.13334418    -0.07200
C876        C  0.98835366  0.00391250  0.16695111    -0.07900
C877        C  0.98186546  0.97174947  0.17966486    -0.02500
C878        C  0.98159276  0.94477861  0.15724613     0.04400
N879        N  0.97362378  0.91169822  0.16796519     0.66900
H880        H  0.99006752  0.92894660  0.10707548     0.15800
H881        H  0.98815009  0.02513423  0.18354974     0.15500
N882        N  0.00253499  0.04245028  0.12198514     0.74600
O883        O  0.94356944  0.90438263  0.17346224    -0.38900
O884        O  0.99418955  0.88842976  0.16287774    -0.38800
O885        O  0.97837135  0.06215555  0.11772194    -0.39500
O886        O  0.03191488  0.05350338  0.12118248    -0.39600
C887        C  0.24636540  0.06075383  0.98371409    -0.11900
C888        C  0.27880586  0.04911717  0.97648151     0.05100
C889        C  0.30528587  0.07192699  0.97618742    -0.07200
C890        C  0.29906504  0.10533105  0.98364594    -0.07900
C891        C  0.26670868  0.11687117  0.99109359    -0.02500
C892        C  0.24011156  0.09425268  0.99101744     0.04400
N893        N  0.20655688  0.10507457  0.99654498     0.66900
H894        H  0.22544930  0.04378864  0.98317407     0.15800
H895        H  0.31982483  0.12252097  0.98337575     0.15500
N896        N  0.33866613  0.06169533  0.96908024     0.74600
O897        O  0.19260393  0.12416466  0.97577587    -0.38900
O898        O  0.18952866  0.09220070  0.01965770    -0.38800
O899        O  0.34991596  0.06527693  0.93992752    -0.39500
O900        O  0.35880318  0.05743386  0.99278117    -0.39600
C901        C  0.19145757  0.97448031  0.00643586    -0.11900
C902        C  0.20601113  0.97258247  0.97442897     0.05100
C903        C  0.18574213  0.97872185  0.94647293    -0.07200
C904        C  0.15189511  0.98613147  0.95099552    -0.07900
C905        C  0.13755957  0.98853748  0.98297467    -0.02500
C906        C  0.15765948  0.98244476  0.01099146     0.04400
N907        N  0.14395953  0.98254008  0.04398440     0.66900
H908        H  0.20637118  0.96936450  0.02827621     0.15800
H909        H  0.13660573  0.99045383  0.92918078     0.15500
N910        N  0.19927486  0.97920965  0.91347857     0.74600
O911        O  0.11971266  0.96386959  0.05112450    -0.38900
O912        O  0.15865877  0.99799190  0.06697151    -0.38800
O913        O  0.18735459  0.96036602  0.89143448    -0.39500
O914        O  0.21985756  0.00147615  0.90523450    -0.39600
C915        C  0.26567407  0.94318946  0.06017195    -0.11900
C916        C  0.29190621  0.96076658  0.04544256     0.05100
C917        C  0.30969191  0.98419802  0.06431859    -0.07200
C918        C  0.29975326  0.99060573  0.09713792    -0.07900
C919        C  0.27204490  0.97460163  0.11154840    -0.02500
C920        C  0.25485546  0.95034531  0.09257768     0.04400
N921        N  0.22504248  0.93454687  0.10442095     0.66900
H922        H  0.25103039  0.92644818  0.04496781     0.15800
H923        H  0.31384039  0.00853169  0.11141599     0.15500
N924        N  0.33663420  0.00294368  0.04992267     0.74600
O925        O  0.20080848  0.95218888  0.11404367    -0.38900
O926        O  0.22011875  0.90417104  0.09814231    -0.38800
O927        O  0.34302760  0.03189937  0.06024674    -0.39500
O928        O  0.35575393  0.98972550  0.02871298    -0.39600
C929        C  0.05163926  0.22056527  0.40594089    -0.11900
C930        C  0.02447638  0.21104151  0.42562541     0.05100
C931        C  0.99199890  0.21265939  0.41201935    -0.07200
C932        C  0.98721832  0.22443233  0.37951916    -0.07900
C933        C  0.01434192  0.23398382  0.35996345    -0.02500
C934        C  0.04687371  0.23225459  0.37337538     0.04400
N935        N  0.07510907  0.24336175  0.35444314     0.66900
H936        H  0.07638609  0.22108181  0.41666697     0.15800
H937        H  0.96245169  0.22421683  0.36882455     0.15500
N938        N  0.96379347  0.20122438  0.43060549     0.74600
O939        O  0.07451036  0.27144156  0.34023074    -0.38900
O940        O  0.10153530  0.22626762  0.35386195    -0.38800
O941        O  0.93671762  0.21726497  0.42975145    -0.39500
O942        O  0.96423337  0.17233936  0.44297299    -0.39600
C943        C  0.04013197  0.30576877  0.46504368    -0.11900
C944        C  0.03928681  0.29170346  0.49697315     0.05100
C945        C  0.03159877  0.31154408  0.52470160    -0.07200
C946        C  0.02404825  0.34514511  0.51992562    -0.07900
C947        C  0.02380310  0.35916088  0.48780277    -0.02500
C948        C  0.03264304  0.33934586  0.46023199     0.04400
N949        N  0.03232824  0.35242739  0.42710365     0.66900
H950        H  0.04527252  0.29021969  0.44358723     0.15800
H951        H  0.01792526  0.36024112  0.54143363     0.15500
N952        N  0.02936296  0.29752054  0.55744196     0.74600
O953        O  0.05922555  0.36171283  0.41372932    -0.38900
O954        O  0.00653287  0.34942286  0.40948598    -0.38800
O955        O  0.04809736  0.30806872  0.58026273    -0.39500
O956        O  0.00606624  0.27768757  0.56456785    -0.39600
C957        C  0.98889064  0.51457580  0.34267400    -0.11900
C958        C  0.01637961  0.50393799  0.36122509     0.05100
C959        C  0.04825829  0.50357726  0.34615751    -0.07200
C960        C  0.05178478  0.51288448  0.31276897    -0.07900
C961        C  0.02384035  0.52119962  0.29365127    -0.02500
C962        C  0.99229665  0.52286887  0.30910571     0.04400
N963        N  0.96341117  0.53314365  0.29113988     0.66900
H964        H  0.96442488  0.51584287  0.35408220     0.15800
H965        H  0.07606712  0.51086769  0.30107871     0.15500
N966        N  0.07714971  0.49297643  0.36407905     0.74600
O967        O  0.93961731  0.51297646  0.28773065    -0.38900
O968        O  0.95798921  0.56388200  0.28754257    -0.38800
O969        O  0.08703129  0.46319748  0.36187234    -0.39500
O970        O  0.09468305  0.51404201  0.37926793    -0.39600
C971        C  0.02639094  0.41559780  0.19554299    -0.11900
C972        C  0.02695405  0.43471375  0.22464678     0.05100
C973        C  0.01707523  0.41972534  0.25504736    -0.07200
C974        C  0.00657031  0.38649412  0.25578871    -0.07900
C975        C  0.00670758  0.36721159  0.22689029    -0.02500
C976        C  0.01620863  0.38218455  0.19627472     0.04400
N977        N  0.01508085  0.36388952  0.16565166     0.66900
H978        H  0.03257578  0.42706585  0.17187095     0.15800
H979        H  0.00078535  0.37500548  0.27955806     0.15500
N980        N  0.02084558  0.43680101  0.28593397     0.74600
O981        O  0.98921640  0.34790349  0.15788251    -0.38900
O982        O  0.03899662  0.36553345  0.14525685    -0.38800
O983        O  0.99669432  0.43823883  0.30606714    -0.39500
O984        O  0.04986396  0.44262779  0.29630441    -0.39600
C985        C  0.59565380  0.02442971  0.15998533    -0.11900
C986        C  0.57258511  0.03626110  0.18361643     0.05100
C987        C  0.57232222  0.07119242  0.18930876    -0.07200
C988        C  0.59363402  0.09241771  0.17108889    -0.07900
C989        C  0.61477921  0.08102328  0.14520152    -0.02500
C990        C  0.61756090  0.04535778  0.14215018     0.04400
N991        N  0.64328576  0.02872529  0.12344588     0.66900
H992        H  0.59773538  0.99822418  0.15512199     0.15800
H993        H  0.59171278  0.11892307  0.17567781     0.15500
N994        N  0.55059567  0.08605171  0.21350819     0.74600
O995        O  0.63602011  0.00344994  0.10630186    -0.38900
O996        O  0.67339084  0.03298068  0.13107672    -0.38800
O997        O  0.56246845  0.10532962  0.23520829    -0.39500
O998        O  0.51944051  0.08477532  0.20974382    -0.39600
C999        C  0.43713867  0.02326395  0.21650945    -0.11900
C1000       C  0.45492186  0.99363368  0.21145353     0.05100
C1001       C  0.43794164  0.96291306  0.21411501    -0.07200
C1002       C  0.40472094  0.96216841  0.22488494    -0.07900
C1003       C  0.38743525  0.99164657  0.23167555    -0.02500
C1004       C  0.40373749  0.02257794  0.22709482     0.04400
N1005       N  0.38733637  0.05332416  0.23517530     0.66900
H1006       H  0.45007887  0.04688866  0.21533340     0.15800
H1007       H  0.39179153  0.93854436  0.22625844     0.15500
N1008       N  0.45378245  0.93246656  0.20430289     0.74600
O1009       O  0.37227792  0.05640417  0.26263964    -0.38900
O1010       O  0.39073464  0.07845060  0.21653712    -0.38800
O1011       O  0.44872881  0.90597728  0.22052807    -0.39500
O1012       O  0.46839191  0.93098756  0.17649409    -0.39600
C1013       C  0.49498080  0.98480350  0.34611150    -0.11900
C1014       C  0.52406845  0.98440107  0.36498341     0.05100
C1015       C  0.55501020  0.99112652  0.34947593    -0.07200
C1016       C  0.55616676  0.99822447  0.31540989    -0.07900
C1017       C  0.52699712  0.99823766  0.29635287    -0.02500
C1018       C  0.49605541  0.99252738  0.31225254     0.04400
N1019       N  0.46532201  0.99787926  0.29518907     0.66900
H1020       H  0.47103164  0.98154179  0.35819758     0.15800
H1021       H  0.58014831  0.00186138  0.30353144     0.15500
N1022       N  0.58552860  0.98974653  0.36783119     0.74600
O1023       O  0.44229332  0.97666098  0.29760505    -0.38900
O1024       O  0.45852910  0.02682060  0.28495845    -0.38800
O1025       O  0.59538006  0.96247364  0.38007331    -0.39500
O1026       O  0.60399270  0.01507142  0.36945185    -0.39600
C1027       C  0.46793661  0.16163199  0.46857352    -0.11900
C1028       C  0.49560035  0.18203125  0.46251865     0.05100
C1029       C  0.52755190  0.16737352  0.46079649    -0.07200
C1030       C  0.53175756  0.13367533  0.46810781    -0.07900
C1031       C  0.50459546  0.11377821  0.47654819    -0.02500
C1032       C  0.47221381  0.12763758  0.47581366     0.04400
N1033       N  0.44355580  0.10746532  0.48188408     0.66900
H1034       H  0.44319453  0.17244361  0.46953647     0.15800
H1035       H  0.55653455  0.12290801  0.46712708     0.15500
N1036       N  0.55586405  0.18616266  0.45035194     0.74600
O1037       O  0.42772705  0.11028873  0.50891232    -0.38900
O1038       O  0.43164394  0.09009159  0.45866408    -0.38800
O1039       O  0.58352630  0.18186857  0.46465695    -0.39500
O1040       O  0.55500565  0.20078879  0.42252638    -0.39600
C1041       C  0.43021907  0.31732534  0.37976700    -0.11900
C1042       C  0.40847487  0.34146232  0.39371676     0.05100
C1043       C  0.41110542  0.34564973  0.42932359    -0.07200
C1044       C  0.43228053  0.32480054  0.44826718    -0.07900
C1045       C  0.45211336  0.29946758  0.43428198    -0.02500
C1046       C  0.45157135  0.29688270  0.39898883     0.04400
N1047       N  0.47211518  0.27322211  0.38182156     0.66900
H1048       H  0.43039533  0.31394964  0.35301494     0.15800
H1049       H  0.43388683  0.33004006  0.47450945     0.15500
N1050       N  0.39388440  0.37108065  0.44774647     0.74600
O1051       O  0.45914792  0.25355306  0.36112272    -0.38900
O1052       O  0.50340908  0.27572458  0.38291652    -0.38800
O1053       O  0.37750366  0.36291636  0.47337340    -0.39500
O1054       O  0.40267754  0.40103979  0.44477887    -0.39600
C1055       C  0.35828580  0.30411255  0.35434903    -0.11900
C1056       C  0.36110421  0.33865403  0.34787635     0.05100
C1057       C  0.33893170  0.35170982  0.32312699    -0.07200
C1058       C  0.31863140  0.33046001  0.30404693    -0.07900
C1059       C  0.31750360  0.29587216  0.30934055    -0.19300
C1060       C  0.33586062  0.28335984  0.33706191     0.04400
N1061       N  0.32949550  0.25101784  0.35086289     0.66900
H1062       H  0.37124125  0.29315579  0.37519187     0.15800
H1063       H  0.30294578  0.34148598  0.28504812     0.15500
N1064       N  0.33601849  0.38672768  0.31707510     0.74600
O1065       O  0.35338616  0.23320726  0.36104002    -0.38900
O1066       O  0.30005336  0.24279073  0.35823599    -0.38800
O1067       O  0.34886498  0.39883430  0.29103399    -0.39500
O1068       O  0.31243674  0.40237471  0.33083738    -0.39600
C1069       C  0.45510192  0.42035178  0.33033354    -0.11900
C1070       C  0.45442706  0.41329492  0.29603304     0.05100
C1071       C  0.43430676  0.38617282  0.28608939    -0.07200
C1072       C  0.41332192  0.37011016  0.30945538    -0.07900
C1073       C  0.41084713  0.37977778  0.34348346    -0.02500
C1074       C  0.43475640  0.40392127  0.35373472     0.04400
N1075       N  0.43997520  0.41190819  0.38792002     0.66900
H1076       H  0.47216155  0.43912191  0.33940620     0.15800
H1077       H  0.39986780  0.34875081  0.30041862     0.15500
N1078       N  0.43674943  0.37221331  0.25344445     0.74600
O1079       O  0.46075053  0.39468540  0.40409312    -0.38900
O1080       O  0.43425621  0.44133488  0.39740403    -0.38800
O1081       O  0.46424682  0.36053957  0.24350565    -0.39500
O1082       O  0.41061852  0.36598898  0.23720023    -0.39600
C1083       C  0.47004372  0.47689892  0.12811902    -0.11900
C1084       C  0.50133219  0.48356751  0.11360455     0.05100
C1085       C  0.53011253  0.47997937  0.13315641    -0.07200
C1086       C  0.52709556  0.46958702  0.16634009    -0.07900
C1087       C  0.49590359  0.46267614  0.18106695    -0.02500
C1088       C  0.46694718  0.46721120  0.16165415     0.04400
N1089       N  0.43430221  0.46391145  0.17579452     0.66900
H1090       H  0.44769170  0.47964184  0.11325805     0.15800
H1091       H  0.54970655  0.46647318  0.18047684     0.15500
N1092       N  0.56269157  0.48481212  0.11931442     0.74600
O1093       O  0.42600066  0.48132771  0.20060507    -0.38900
O1094       O  0.41232692  0.44739662  0.16071212    -0.38800
O1095       O  0.58327082  0.50336760  0.13398259    -0.39500
O1096       O  0.57241545  0.46717705  0.09517720    -0.39600
C1097       C  0.18859187  0.49860297  0.45129814    -0.11900
C1098       C  0.20382291  0.46808019  0.45881924     0.05100
C1099       C  0.18536091  0.44295670  0.47495679    -0.07200
C1100       C  0.15265878  0.44986438  0.48519860    -0.07900
C1101       C  0.13819451  0.48128390  0.47975632    -0.02500
C1102       C  0.15615805  0.50575934  0.46209531     0.04400
N1103       N  0.14185742  0.53777452  0.45483811     0.66900
H1104       H  0.20283377  0.51774626  0.43868643     0.15800
H1105       H  0.13805587  0.43036610  0.49685657     0.15500
N1106       N  0.19956057  0.41066534  0.48140353     0.74600
O1107       O  0.12749371  0.55414137  0.47751512    -0.38900
O1108       O  0.14731986  0.55159780  0.42709649    -0.38800
O1109       O  0.19137020  0.39460749  0.50720549    -0.39500
O1110       O  0.21693595  0.39635682  0.45942809    -0.39600
C1111       C  0.31644997  0.39760946  0.42772442    -0.11900
C1112       C  0.32014229  0.43234759  0.42505528     0.05100
C1113       C  0.34151382  0.44409372  0.39934435    -0.07200
C1114       C  0.36240910  0.42157342  0.38198697    -0.07900
C1115       C  0.36149588  0.38669327  0.38735942    -0.02500
C1116       C  0.33543032  0.37508970  0.40877846     0.04400
N1117       N  0.32655577  0.34061296  0.41084223     0.66900
H1118       H  0.29797045  0.38756571  0.44468513     0.15800
H1119       H  0.37754196  0.43173220  0.36223716     0.15500
N1120       N  0.33927950  0.47753563  0.38703775     0.74600
O1121       O  0.29921315  0.33135433  0.39853485    -0.38900
O1122       O  0.34125338  0.32160629  0.43112256    -0.38800
O1123       O  0.36541581  0.49312649  0.37917392    -0.39500
O1124       O  0.31139740  0.48886298  0.37782545    -0.39600
C1125       C  0.97501699  0.62761775  0.47517909    -0.11900
C1126       C  0.00650657  0.61418062  0.48309363     0.05100
C1127       C  0.03455008  0.63496117  0.48143719    -0.07200
C1128       C  0.03059119  0.66851587  0.47269024    -0.07900
C1129       C  0.99890018  0.68236573  0.46617624    -0.02500
C1130       C  0.97096368  0.66121020  0.46647559     0.04400
N1131       N  0.93832370  0.67318902  0.45850923     0.66900
H1132       H  0.95323572  0.61172356  0.47537226     0.15800
H1133       H  0.05253131  0.68417013  0.47194081     0.15500
N1134       N  0.06726857  0.62220921  0.48744035     0.74600
O1135       O  0.93107504  0.67857405  0.42841681    -0.38900
O1136       O  0.91498407  0.66918046  0.47922051    -0.38800
O1137       O  0.08683632  0.61737051  0.46329254    -0.39500
O1138       O  0.07823332  0.62068714  0.51683075    -0.39600
C1139       C  0.70118031  0.99915572  0.45952251    -0.11900
C1140       C  0.71258873  0.96608458  0.45974949     0.05100
C1141       C  0.68992408  0.94009827  0.46540553    -0.07200
C1142       C  0.65725993  0.94772246  0.47485069    -0.07900
C1143       C  0.64643183  0.98099989  0.47720257    -0.02500
C1144       C  0.66822725  0.00682279  0.46782008     0.04400
N1145       N  0.65793473  0.04095403  0.46855618     0.66900
H1146       H  0.71853979  0.01930023  0.45510557     0.15800
H1147       H  0.64015194  0.92750397  0.47998387     0.15500
N1148       N  0.69996959  0.90601868  0.46245377     0.74600
O1149       O  0.65061971  0.05454131  0.49592307    -0.38900
O1150       O  0.65964948  0.05846172  0.44246572    -0.38800
O1151       O  0.70660187  0.88904543  0.48807279    -0.39500
O1152       O  0.69807830  0.89175098  0.43458048    -0.39600
C1153       C  0.90164082  0.91585966  0.33662144    -0.11900
C1154       C  0.90884641  0.88134006  0.33778040     0.05100
C1155       C  0.93234070  0.86985031  0.31349946    -0.07200
C1156       C  0.95041791  0.89251603  0.29358706    -0.07900
C1157       C  0.94545093  0.92719638  0.29509864    -0.02500
C1158       C  0.91846306  0.93833954  0.31529900     0.04400
N1159       N  0.90486005  0.97119715  0.31205767     0.66900
H1160       H  0.88100317  0.92571155  0.35082995     0.15800
H1161       H  0.96876433  0.88260795  0.27640770     0.15500
N1162       N  0.93800024  0.83515223  0.30775404     0.74600
O1163       O  0.89606093  0.98176735  0.28376473    -0.38900
O1164       O  0.89646857  0.98732422  0.33770651    -0.38800
O1165       O  0.92407647  0.82186210  0.28299612    -0.39500
O1166       O  0.96408234  0.82177271  0.31914757    -0.39600
C1167       C  0.94891271  0.84323324  0.38605504    -0.11900
C1168       C  0.91458377  0.83544532  0.38442812     0.05100
C1169       C  0.90361612  0.80969806  0.40656668    -0.07200
C1170       C  0.92653761  0.79163613  0.42611162    -0.07900
C1171       C  0.96080141  0.79888746  0.42677826    -0.02500
C1172       C  0.97146051  0.82648991  0.40722702     0.04400
N1173       N  0.00366128  0.84102333  0.41107462     0.66900
H1174       H  0.95848267  0.86467195  0.37292388     0.15800
H1175       H  0.91702503  0.77193790  0.44197587     0.15500
N1176       N  0.86911272  0.80200159  0.41103476     0.74600
O1177       O  0.02144928  0.84660071  0.38570972    -0.38900
O1178       O  0.01122986  0.85445910  0.43840975    -0.38800
O1179       O  0.85767573  0.77603624  0.39768271    -0.39500
O1180       O  0.85462162  0.81308019  0.43664908    -0.39600
C1181       C  0.83414065  0.86832170  0.39494168    -0.11900
C1182       C  0.86793946  0.87648995  0.38909395     0.05100
C1183       C  0.88167979  0.90080202  0.41119386    -0.07200
C1184       C  0.86105340  0.91916322  0.43298759    -0.07900
C1185       C  0.82670820  0.91311627  0.43600407    -0.02500
C1186       C  0.81422042  0.88479249  0.41891344     0.04400
N1187       N  0.78258210  0.87042358  0.42741490     0.66900
H1188       H  0.82329923  0.84716080  0.38251280     0.15800
H1189       H  0.87242790  0.93824027  0.44816143     0.15500
N1190       N  0.91671373  0.90694924  0.41292239     0.74600
O1191       O  0.76478815  0.85726537  0.40517931    -0.38900
O1192       O  0.77458434  0.86662364  0.45760462    -0.38800
O1193       O  0.92800315  0.93365281  0.40077182    -0.39500
O1194       O  0.93301167  0.89290191  0.43585964    -0.39600
C1195       C  0.87559248  0.80048723  0.33296155    -0.11900
C1196       C  0.86770449  0.83441761  0.33858552     0.05100
C1197       C  0.84119372  0.84757437  0.31870493    -0.07200
C1198       C  0.82191960  0.82663959  0.29816812    -0.07900
C1199       C  0.82836134  0.79231053  0.29485617    -0.02500
C1200       C  0.85749149  0.78002224  0.31088610     0.04400
N1201       N  0.87131252  0.74806969  0.30283266     0.66900
H1202       H  0.89776486  0.78984714  0.34388738     0.15800
H1203       H  0.80179373  0.83780831  0.28408107     0.15500
N1204       N  0.83369120  0.88241693  0.31793896     0.74600
O1205       O  0.87637263  0.74041952  0.27277401    -0.38900
O1206       O  0.88336346  0.72986926  0.32551734    -0.38800
O1207       O  0.84534846  0.89960478  0.29430890    -0.39500
O1208       O  0.80772148  0.89268282  0.33244857    -0.39600
C1209       C  0.61558101  0.25220832  0.51256493    -0.11900
C1210       C  0.63472831  0.24278492  0.48495223     0.05100
C1211       C  0.62125658  0.24752167  0.45270423    -0.07200
C1212       C  0.58837423  0.25923243  0.44896976    -0.07900
C1213       C  0.56834368  0.26548206  0.47693229    -0.02500
C1214       C  0.58295679  0.26397070  0.50884034     0.04400
N1215       N  0.56519361  0.27550267  0.53755661     0.66900
H1216       H  0.62623033  0.25081024  0.53730224     0.15800
H1217       H  0.57774064  0.26105220  0.42425807     0.15500
N1218       N  0.64043306  0.24022875  0.42358031     0.74600
O1219       O  0.56917949  0.26134467  0.56538155    -0.38900
O1220       O  0.55028420  0.30318468  0.53632300    -0.38800
O1221       O  0.63854052  0.21181362  0.41038743    -0.39500
O1222       O  0.65540287  0.26337589  0.40846869    -0.39600
C1223       C  0.78895543  0.08099897  0.50982530    -0.11900
C1224       C  0.77417882  0.09825879  0.48308065     0.05100
C1225       C  0.77172893  0.08179598  0.45195868    -0.07200
C1226       C  0.78384010  0.04912583  0.44854819    -0.07900
C1227       C  0.79732926  0.03181401  0.47556873    -0.02500
C1228       C  0.80034550  0.04809533  0.50650754     0.04400
N1229       N  0.81427824  0.03122940  0.53488987     0.66900
H1230       H  0.79175389  0.09326780  0.53365223     0.15800
H1231       H  0.77998130  0.03609446  0.42526432     0.15500
N1232       N  0.75655769  0.09714431  0.42359234     0.74600
O1233       O  0.83848342  0.01142606  0.53125311    -0.38900
O1234       O  0.80432700  0.03812152  0.56392476    -0.38800
O1235       O  0.77011431  0.09370394  0.39540905    -0.39500
O1236       O  0.72618991  0.10522740  0.42496037    -0.39600
C1237       C  0.90360974  0.19520862  0.50688416    -0.11900
C1238       C  0.88957166  0.22664294  0.49952124     0.05100
C1239       C  0.90981625  0.25504214  0.50206869    -0.07200
C1240       C  0.94360214  0.25139564  0.51007398    -0.07900
C1241       C  0.95811227  0.21973716  0.51514769    -0.02500
C1242       C  0.93735173  0.19157550  0.51504393     0.04400
N1243       N  0.95014652  0.15907850  0.52231877     0.66900
H1244       H  0.88820336  0.17309733  0.50634715     0.15800
H1245       H  0.95904804  0.27348160  0.51066971     0.15500
N1246       N  0.89643428  0.28771320  0.49720136     0.74600
O1247       O  0.95402786  0.15049861  0.55230987    -0.38900
O1248       O  0.95001308  0.13694524  0.50008582    -0.38800
O1249       O  0.89198468  0.30655502  0.52192204    -0.39500
O1250       O  0.89410041  0.29948704  0.46813353    -0.39600
C1251       C  0.80159964  0.22095458  0.67292952    -0.11900
C1252       C  0.79873130  0.25393886  0.68408474     0.05100
C1253       C  0.79060226  0.27942304  0.66128808    -0.07200
C1254       C  0.78188827  0.27062082  0.62871537    -0.07900
C1255       C  0.78177457  0.23717453  0.61841085    -0.02500
C1256       C  0.79356931  0.21240308  0.64028164     0.04400
N1257       N  0.79517499  0.17820712  0.63056831     0.66900
H1258       H  0.80783721  0.20130030  0.69040673     0.15800
H1259       H  0.77426799  0.28999313  0.61155927     0.15500
N1260       N  0.78971224  0.31392506  0.67080059     0.74600
O1261       O  0.82068123  0.16749562  0.61556678    -0.38900
O1262       O  0.77450725  0.15773937  0.64246663    -0.38800
O1263       O  0.80111217  0.33579612  0.65126035    -0.39500
O1264       O  0.77527345  0.32305778  0.69720376    -0.39600
C1265       C  0.74521826  0.97273853  0.59670876    -0.11900
C1266       C  0.77355404  0.97418614  0.61668017     0.05100
C1267       C  0.80454355  0.96345617  0.60317084    -0.07200
C1268       C  0.80636424  0.95210560  0.57008479    -0.07900
C1269       C  0.77809715  0.95181139  0.54971074    -0.02500
C1270       C  0.74704058  0.96122017  0.56388066     0.04400
N1271       N  0.71663459  0.95761805  0.54586748     0.66900
H1272       H  0.72109607  0.97905984  0.60714370     0.15800
H1273       H  0.83046347  0.94591424  0.55955267     0.15500
N1274       N  0.83468869  0.96545888  0.62216893     0.74600
O1275       O  0.70505314  0.92876421  0.54194618    -0.38900
O1276       O  0.69732269  0.98231420  0.54299175    -0.38800
O1277       O  0.85479379  0.94123687  0.62264301    -0.39500
O1278       O  0.84275010  0.99248480  0.63593270    -0.39600
C1279       C  0.74169114  0.13493452  0.74876134    -0.11900
C1280       C  0.76995447  0.11599730  0.74102047     0.05100
C1281       C  0.80176923  0.13095822  0.74337832    -0.07200
C1282       C  0.80467906  0.16410122  0.75409389    -0.07900
C1283       C  0.77640703  0.18298043  0.76212461    -0.02500
C1284       C  0.74460626  0.16805084  0.75963382     0.04400
N1285       N  0.71522029  0.18579447  0.76961595     0.66900
H1286       H  0.71739560  0.12324734  0.74846510     0.15800
H1287       H  0.82898779  0.17578102  0.75425333     0.15500
N1288       N  0.83123035  0.11300013  0.73393503     0.74600
O1289       O  0.68807673  0.18131931  0.75448261    -0.38900
O1290       O  0.71521536  0.20201224  0.79648906    -0.38800
O1291       O  0.83269918  0.09871209  0.70600077    -0.39500
O1292       O  0.85680723  0.11381710  0.75213030    -0.39600
C1293       C  0.82957178  0.21692830  0.19594991    -0.11900
C1294       C  0.81208166  0.20819649  0.22486851     0.05100
C1295       C  0.82874975  0.20872563  0.25586034    -0.07200
C1296       C  0.86187347  0.21973650  0.25754940    -0.07900
C1297       C  0.87911734  0.22921612  0.22874547    -0.02500
C1298       C  0.86282772  0.22740811  0.19761304     0.04400
N1299       N  0.87922362  0.23798959  0.16772725     0.66900
H1300       H  0.81664497  0.21796051  0.17229852     0.15800
H1301       H  0.87473868  0.21941016  0.28124532     0.15500
N1302       N  0.81247288  0.19735369  0.28560766     0.74600
O1303       O  0.88114610  0.21863835  0.14308418    -0.38900
O1304       O  0.88887706  0.26774370  0.16480533    -0.38800
O1305       O  0.79512762  0.17120129  0.28486904    -0.39500
O1306       O  0.81909737  0.21047354  0.31334298    -0.39600
C1307       C  0.69922073  0.14190143  0.18778276    -0.11900
C1308       C  0.69292563  0.17629948  0.18838454     0.05100
C1309       C  0.66248788  0.18721036  0.17397299    -0.07200
C1310       C  0.64341081  0.16516896  0.15454036    -0.07900
C1311       C  0.65246585  0.13136921  0.14937094    -0.02500
C1312       C  0.67911919  0.11953593  0.16986123     0.04400
N1313       N  0.68668973  0.08493951  0.17309133     0.66900
H1314       H  0.71980924  0.13184345  0.20201167     0.15800
H1315       H  0.62039646  0.17488493  0.14455907     0.15500
N1316       N  0.64937453  0.21996086  0.17990351     0.74600
O1317       O  0.71569958  0.07504086  0.16587628    -0.38900
O1318       O  0.66947591  0.06770708  0.19299496    -0.38800
O1319       O  0.63587616  0.23606897  0.15646789    -0.39500
O1320       O  0.64678361  0.23072479  0.20929934    -0.39600
C1321       C  0.73323540  0.19770744  0.31701076    -0.11900
C1322       C  0.73171097  0.22695417  0.29823910     0.05100
C1323       C  0.74011252  0.25753293  0.31361019    -0.07200
C1324       C  0.75108015  0.25797611  0.34680617    -0.07900
C1325       C  0.75368491  0.22842075  0.36515460    -0.02500
C1326       C  0.74512329  0.19798193  0.34970148     0.04400
N1327       N  0.75074870  0.16681852  0.36610471     0.66900
H1328       H  0.72826439  0.17400063  0.30520404     0.15800
H1329       H  0.75614743  0.28161219  0.35870151     0.15500
N1330       N  0.73591544  0.28846831  0.29638024     0.74600
O1331       O  0.72965008  0.14373491  0.36354327    -0.38900
O1332       O  0.77891918  0.16069484  0.37865190    -0.38800
O1333       O  0.70738444  0.29653274  0.28603236    -0.39500
O1334       O  0.75859779  0.31015173  0.29723425    -0.39600
C1335       C  0.79878294  0.62191713  0.25754971    -0.11900
C1336       C  0.76650665  0.60968182  0.25138499     0.05100
C1337       C  0.73937444  0.63190146  0.25214344    -0.07200
C1338       C  0.74525893  0.66591290  0.25724341    -0.07900
C1339       C  0.77772707  0.67821626  0.26227846    -0.02500
C1340       C  0.80454959  0.65566726  0.26329768     0.04400
N1341       N  0.83793215  0.66661724  0.26892799     0.66900
H1342       H  0.81999089  0.60514428  0.25747763     0.15800
H1343       H  0.72422631  0.68285153  0.25729948     0.15500
N1344       N  0.70582851  0.62025690  0.24932812     0.74600
O1345       O  0.85083700  0.66245824  0.29725100    -0.38900
O1346       O  0.85642453  0.67374359  0.24451543    -0.38800
O1347       O  0.69431413  0.60044942  0.27090341    -0.39500
O1348       O  0.68637837  0.63334784  0.22836949    -0.39600
C1349       C  0.58748973  0.43943429  0.23165292    -0.11900
C1350       C  0.57176983  0.44823990  0.26166156     0.05100
C1351       C  0.58983537  0.46590758  0.28576774    -0.07200
C1352       C  0.62246190  0.47628642  0.27866210    -0.07900
C1353       C  0.63746961  0.46922491  0.24780910    -0.02500
C1354       C  0.62007144  0.44980095  0.22456650     0.04400
N1355       N  0.63545789  0.43990377  0.19402714     0.66900
H1356       H  0.57384400  0.42555024  0.21307459     0.15800
H1357       H  0.63638453  0.48955741  0.29749089     0.15500
N1358       N  0.57498626  0.47408691  0.31715859     0.74600
O1359       O  0.64957468  0.41187178  0.19192399    -0.38900
O1360       O  0.63242549  0.45785718  0.16838333    -0.38800
O1361       O  0.56328046  0.45134847  0.33548513    -0.39500
O1362       O  0.57585627  0.50360342  0.32778750    -0.39600
C1363       C  0.77792341  0.30315572  0.20628428    -0.11900
C1364       C  0.74489706  0.29175034  0.20585787     0.05100
C1365       C  0.71871859  0.31422228  0.21205577    -0.07200
C1366       C  0.72610949  0.34632803  0.22308039    -0.07900
C1367       C  0.75925833  0.35686752  0.22630622    -0.02500
C1368       C  0.78536301  0.33554764  0.21638995     0.04400
N1369       N  0.81949777  0.34559853  0.21866750     0.66900
H1370       H  0.79820485  0.28587177  0.20169377     0.15800
H1371       H  0.70582201  0.36336822  0.22848058     0.15500
N1372       N  0.68467457  0.30442853  0.20834746     0.74600
O1373       O  0.83130157  0.35476262  0.24626042    -0.38900
O1374       O  0.83867182  0.34222952  0.19394651    -0.38800
O1375       O  0.66467036  0.30722613  0.23246091    -0.39500
O1376       O  0.67329879  0.29947292  0.17952985    -0.39600
C1377       C  0.90252746  0.53029205  0.22125793    -0.11900
C1378       C  0.89132161  0.49713228  0.22117432     0.05100
C1379       C  0.91202881  0.47212897  0.20762736    -0.07200
C1380       C  0.94419717  0.48022512  0.19716739    -0.07900
C1381       C  0.95662963  0.51262842  0.20067634    -0.02500
C1382       C  0.93487026  0.53847177  0.21048542     0.04400
N1383       N  0.94544779  0.57268176  0.21036785     0.66900
H1384       H  0.88587142  0.54992838  0.22943112     0.15800
H1385       H  0.96091656  0.46025197  0.18990007     0.15500
N1386       N  0.90183075  0.43796656  0.20680299     0.74600
O1387       O  0.96382311  0.58336858  0.18717833    -0.38900
O1388       O  0.93219112  0.59342713  0.22993357    -0.38800
O1389       O  0.90429724  0.42153981  0.18015579    -0.39500
O1390       O  0.89380447  0.42322146  0.23342730    -0.39600
C1391       C  0.83544621  0.52225952  0.51591054    -0.11900
C1392       C  0.81619522  0.49327218  0.51766714     0.05100
C1393       C  0.83170009  0.46195302  0.51408775    -0.07200
C1394       C  0.86543373  0.46021939  0.50584907    -0.07900
C1395       C  0.88410107  0.48924605  0.50141294    -0.02500
C1396       C  0.86910424  0.52056367  0.50714673     0.04400
N1397       N  0.88759015  0.55079781  0.50393639     0.66900
H1398       H  0.82385120  0.54644378  0.51910766     0.15800
H1399       H  0.87720459  0.43605098  0.50312409     0.15500
N1400       N  0.81390253  0.43182113  0.52062518     0.74600
O1401       O  0.88941945  0.56509099  0.47596686    -0.38900
O1402       O  0.89686935  0.56605520  0.52971048    -0.38800
O1403       O  0.81792954  0.40684918  0.50200031    -0.39500
O1404       O  0.79950530  0.42820860  0.54834777    -0.39600
C1405       C  0.71821964  0.50334573  0.41492649    -0.11900
C1406       C  0.74495903  0.51171839  0.43551822     0.05100
C1407       C  0.77718585  0.51398382  0.42151650    -0.07200
C1408       C  0.78256013  0.50475656  0.38831250    -0.07900
C1409       C  0.75636624  0.49347454  0.36840202    -0.02500
C1410       C  0.72362470  0.49355760  0.38177488     0.04400
N1411       N  0.69561083  0.48351454  0.36228418     0.66900
H1412       H  0.69336564  0.50169664  0.42537965     0.15800
H1413       H  0.80743336  0.50650995  0.37793098     0.15500
N1414       N  0.80452117  0.52641176  0.44061847     0.74600
O1415       O  0.69044169  0.45292903  0.35738026    -0.38900
O1416       O  0.67271897  0.50421917  0.35614749    -0.38800
O1417       O  0.83355842  0.51518326  0.43591121    -0.39500
O1418       O  0.80059546  0.55228711  0.45796974    -0.39600
C1419       C  0.71572943  0.55768207  0.57952583    -0.11900
C1420       C  0.70184335  0.53910594  0.55321307     0.05100
C1421       C  0.66692917  0.54134222  0.54929030    -0.07200
C1422       C  0.64790444  0.56279667  0.56956574    -0.07900
C1423       C  0.66226655  0.58459490  0.59325874    -0.02500
C1424       C  0.69699568  0.57943352  0.59967674     0.04400
N1425       N  0.71425689  0.59406750  0.62723342     0.66900
H1426       H  0.74157225  0.55539422  0.58599540     0.15800
H1427       H  0.62147652  0.56375331  0.56516720     0.15500
N1428       N  0.65011627  0.52223765  0.52447875     0.74600
O1429       O  0.70834502  0.58390949  0.65639051    -0.38900
O1430       O  0.74115791  0.60941468  0.62186324    -0.38800
O1431       O  0.63409476  0.49663589  0.53310933    -0.39500
O1432       O  0.64492102  0.53481635  0.49612986    -0.39600
C1433       C  0.73284793  0.40375507  0.53440903    -0.11900
C1434       C  0.73059165  0.42328756  0.50556738     0.05100
C1435       C  0.73532686  0.40790626  0.47425169    -0.07200
C1436       C  0.74569341  0.37461865  0.47242764    -0.07900
C1437       C  0.74993312  0.35560193  0.50129190    -0.02500
C1438       C  0.74292746  0.37026971  0.53265595     0.04400
N1439       N  0.74841229  0.35225824  0.56303655     0.66900
H1440       H  0.72990739  0.41531263  0.55859695     0.15800
H1441       H  0.74885042  0.36307193  0.44825739     0.15500
N1442       N  0.72762552  0.42531011  0.44411040     0.74600
O1443       O  0.77617781  0.33837136  0.56817498    -0.38900
O1444       O  0.72736739  0.35384832  0.58638705    -0.38800
O1445       O  0.74621624  0.42225263  0.41889761    -0.39500
O1446       O  0.69913069  0.43820322  0.44081753    -0.39600
C1447       C  0.52669101  0.66799038  0.95610311    -0.11900
C1448       C  0.49572297  0.68437102  0.95293506     0.05100
C1449       C  0.46647660  0.66524503  0.95674458    -0.07200
C1450       C  0.46897294  0.63139768  0.96580560    -0.07900
C1451       C  0.50008206  0.61611689  0.97188423    -0.02500
C1452       C  0.52912172  0.63459076  0.96579278     0.04400
N1453       N  0.56132117  0.61946779  0.96795362     0.66900
H1454       H  0.54956789  0.68147672  0.95234007     0.15800
H1455       H  0.44630424  0.61713608  0.96896601     0.15500
N1456       N  0.43412772  0.67971526  0.95254634     0.74600
O1457       O  0.57583414  0.60986731  0.94176290    -0.38900
O1458       O  0.57731481  0.62067566  0.99493001    -0.38800
O1459       O  0.41412428  0.66733702  0.93181390    -0.39500
O1460       O  0.42399589  0.70198171  0.97225729    -0.39600
C1461       C  0.52145961  0.94624214  0.66869977    -0.11900
C1462       C  0.48994507  0.95470782  0.68089950     0.05100
C1463       C  0.46617560  0.96877185  0.65939038    -0.07200
C1464       C  0.47626853  0.97926510  0.62774372    -0.07900
C1465       C  0.50917806  0.97444128  0.61664181    -0.02500
C1466       C  0.53177434  0.95656528  0.63703731     0.04400
N1467       N  0.56558323  0.95029832  0.62698937     0.66900
H1468       H  0.53910941  0.93403161  0.68507690     0.15800
H1469       H  0.45794718  0.99031867  0.61128144     0.15500
N1470       N  0.43179265  0.97164128  0.66904051     0.74600
O1471       O  0.58313334  0.97359577  0.61525123    -0.38900
O1472       O  0.57932882  0.92288425  0.63412225    -0.38800
O1473       O  0.41351267  0.99392731  0.65637190    -0.39500
O1474       O  0.41811183  0.94785943  0.68433530    -0.39600
C1475       C  0.58021389  0.97976418  0.72662602    -0.11900
C1476       C  0.56527478  0.97438005  0.75812082     0.05100
C1477       C  0.58618841  0.97461473  0.78637783    -0.07200
C1478       C  0.62075925  0.97944939  0.78228177    -0.07900
C1479       C  0.63510897  0.98512729  0.75060340    -0.02500
C1480       C  0.61435851  0.98497442  0.72260502     0.04400
N1481       N  0.62767342  0.98813692  0.68961624     0.66900
H1482       H  0.56577315  0.97929884  0.70417371     0.15800
H1483       H  0.63646384  0.97954268  0.80419687     0.15500
N1484       N  0.57282541  0.97173641  0.81935960     0.74600
O1485       O  0.64794553  0.96666368  0.67871164    -0.38900
O1486       O  0.61602973  0.00982515  0.67001540    -0.38800
O1487       O  0.58556664  0.95145524  0.83977932    -0.39500
O1488       O  0.55125845  0.99234085  0.82942382    -0.39600
C1489       C  0.36113603  0.92513475  0.88072679    -0.11900
C1490       C  0.36142493  0.89023271  0.88664670     0.05100
C1491       C  0.33696632  0.87884178  0.90999249    -0.07200
C1492       C  0.31727401  0.90149649  0.92828915    -0.07900
C1493       C  0.31948782  0.93625509  0.92440333    -0.02500
C1494       C  0.34116959  0.94772802  0.89881888     0.04400
N1495       N  0.34256916  0.98183825  0.88893952     0.66900
H1496       H  0.37607816  0.93598154  0.86118184     0.15800
H1497       H  0.29992435  0.89149120  0.94643529     0.15500
N1498       N  0.33087389  0.84429441  0.91569131     0.74600
O1499       O  0.36972574  0.99744620  0.89117331    -0.38900
O1500       O  0.31934065  0.99385934  0.87147157    -0.38800
O1501       O  0.33708254  0.83246549  0.94417749    -0.39500
O1502       O  0.30908879  0.83010377  0.89816383    -0.39600
C1503       C  0.41025429  0.84764638  0.92271455    -0.11900
C1504       C  0.41020453  0.84528381  0.88769698     0.05100
C1505       C  0.43590442  0.82506296  0.87336230    -0.07200
C1506       C  0.45614625  0.80472539  0.89365690    -0.07900
C1507       C  0.45392257  0.80483526  0.92866974    -0.02500
C1508       C  0.43184075  0.82880150  0.94298492     0.04400
N1509       N  0.43292804  0.83763278  0.97738540     0.66900
H1510       H  0.39478954  0.86580716  0.93507734     0.15800
H1511       H  0.47429159  0.78867943  0.88168393     0.15500
N1512       N  0.44275822  0.82548301  0.83829878     0.74600
O1513       O  0.45845115  0.85191264  0.98874712    -0.38900
O1514       O  0.40646138  0.83748870  0.99443606    -0.38800
O1515       O  0.46956536  0.83828158  0.82802538    -0.39500
O1516       O  0.42606762  0.80762313  0.81871237    -0.39600
C1517       C  0.40283494  0.89007242  0.80732836    -0.11900
C1518       C  0.40842274  0.88783246  0.84194452     0.05100
C1519       C  0.43566024  0.90750148  0.85424886    -0.07200
C1520       C  0.45569082  0.92677707  0.83241909    -0.07900
C1521       C  0.44860437  0.92978214  0.79827977    -0.02500
C1522       C  0.41954837  0.91307158  0.78683134     0.04400
N1523       N  0.40390756  0.92183385  0.75594428     0.66900
H1524       H  0.38395593  0.87560646  0.79541029     0.15800
H1525       H  0.47651888  0.94038628  0.84266930     0.15500
N1526       N  0.44417898  0.90781494  0.88884074     0.74600
O1527       O  0.39185514  0.89946418  0.73753198    -0.38900
O1528       O  0.39676745  0.95192827  0.75016405    -0.38800
O1529       O  0.47175111  0.89571437  0.89795280    -0.39500
O1530       O  0.42847628  0.92663953  0.90851395    -0.39600
C1531       C  0.66132886  0.76022396  0.21964438    -0.11900
C1532       C  0.64443387  0.74101193  0.24357182     0.05100
C1533       C  0.66060453  0.73370059  0.27403373    -0.07200
C1534       C  0.69332181  0.74460604  0.27928439    -0.07900
C1535       C  0.71032579  0.76288715  0.25486498    -0.02500
C1536       C  0.69397999  0.77116122  0.22491154     0.04400
N1537       N  0.71079887  0.78941204  0.19907913     0.66900
H1538       H  0.64920648  0.76651305  0.19637625     0.15800
H1539       H  0.70624006  0.73704743  0.30176008     0.15500
N1540       N  0.64443215  0.71501743  0.29974790     0.74600
O1541       O  0.70497445  0.78323413  0.16883525    -0.38900
O1542       O  0.72971757  0.81335039  0.20637592    -0.38800
O1543       O  0.65576669  0.68688919  0.30816581    -0.39500
O1544       O  0.62189044  0.72850049  0.31707675    -0.39600
C1545       C  0.51032848  0.58404081  0.27579123    -0.11900
C1546       C  0.50890296  0.59481844  0.24246918     0.05100
C1547       C  0.49603772  0.57336644  0.21810413    -0.07200
C1548       C  0.48608449  0.54139564  0.22716093    -0.07900
C1549       C  0.48987403  0.52959182  0.25991722    -0.02500
C1550       C  0.50053249  0.55169148  0.28497544     0.04400
N1551       N  0.50168919  0.54188756  0.31944030     0.66900
H1552       H  0.51831495  0.60124531  0.29490111     0.15800
H1553       H  0.47813957  0.52464433  0.20771211     0.15500
N1554       N  0.49534315  0.58275061  0.18367719     0.74600
O1555       O  0.52192810  0.55570424  0.33901522    -0.38900
O1556       O  0.47882296  0.52409827  0.33160399    -0.38800
O1557       O  0.52226872  0.58847461  0.16843888    -0.39500
O1558       O  0.46846576  0.58121663  0.16752671    -0.39600
C1559       C  0.53196143  0.75204979  0.05026090    -0.11900
C1560       C  0.49953036  0.75049607  0.03734633     0.05100
C1561       C  0.47385732  0.73683069  0.05705884    -0.07200
C1562       C  0.48121815  0.72518930  0.08912360    -0.07900
C1563       C  0.51365941  0.72715025  0.10207111    -0.02500
C1564       C  0.53938907  0.74025059  0.08210141     0.04400
N1565       N  0.57330085  0.74061324  0.09329625     0.66900
H1566       H  0.55213899  0.76106421  0.03480380     0.15800
H1567       H  0.46108124  0.71576302  0.10447050     0.15500
N1568       N  0.44055599  0.73362632  0.04484537     0.74600
O1569       O  0.58641353  0.71441346  0.10483633    -0.38900
O1570       O  0.59119609  0.76597112  0.08844028    -0.38800
O1571       O  0.42693636  0.70534048  0.04500197    -0.39500
O1572       O  0.42239552  0.75921938  0.04257473    -0.39600
C1573       C  0.52632793  0.86732620  0.25392516    -0.11900
C1574       C  0.51997776  0.84931705  0.22488394     0.05100
C1575       C  0.52321705  0.86533186  0.19359411    -0.07200
C1576       C  0.53250982  0.89893704  0.19201965    -0.07900
C1577       C  0.53752513  0.91725652  0.22117229    -0.02500
C1578       C  0.53574476  0.90087375  0.25232998     0.04400
N1579       N  0.54554022  0.91751178  0.28226087     0.66900
H1580       H  0.52588176  0.85473067  0.27782502     0.15800
H1581       H  0.53326418  0.91140663  0.16806043     0.15500
N1582       N  0.51529364  0.84824281  0.16336482     0.74600
O1583       O  0.53050834  0.91173872  0.30930433    -0.38900
O1584       O  0.57254088  0.93351788  0.28276562    -0.38800
O1585       O  0.48660363  0.83611758  0.15938863    -0.39500
O1586       O  0.53572533  0.84805722  0.13943537    -0.39600
C1587       C  0.33878404  0.78769416  0.82679659    -0.11900
C1588       C  0.31688951  0.80256652  0.80386291     0.05100
C1589       C  0.31502816  0.83779185  0.80439006    -0.07200
C1590       C  0.33566676  0.85649078  0.82571900    -0.07900
C1591       C  0.36062437  0.84185207  0.84610303    -0.02500
C1592       C  0.35951404  0.80597715  0.84817559     0.04400
N1593       N  0.37750831  0.78657702  0.87232809     0.66900
H1594       H  0.34034747  0.76106476  0.82916766     0.15800
H1595       H  0.33333715  0.88337928  0.82490016     0.15500
N1596       N  0.29301117  0.85535712  0.78255919     0.74600
O1597       O  0.36861763  0.78736536  0.90243108    -0.38900
O1598       O  0.39465901  0.76201561  0.86261539    -0.38800
O1599       O  0.26453864  0.86381442  0.79292739    -0.39500
O1600       O  0.30464335  0.86914104  0.75677903    -0.39600
C1601       C  0.00483326  0.78748484  0.56279372    -0.11900
C1602       C  0.98915063  0.76186930  0.54526677     0.05100
C1603       C  0.98187091  0.73161115  0.56169395    -0.07200
C1604       C  0.99190976  0.72683069  0.59470895    -0.07900
C1605       C  0.00806036  0.75215394  0.61209597    -0.02500
C1606       C  0.01427196  0.78300794  0.59616592     0.04400
N1607       N  0.03130383  0.80937814  0.61314703     0.66900
H1608       H  0.01181939  0.81012727  0.54982466     0.15800
H1609       H  0.98552134  0.70387089  0.60743731     0.15500
N1610       N  0.96385607  0.70578450  0.54505094     0.74600
O1611       O  0.05653655  0.80303628  0.63079738    -0.38900
O1612       O  0.02308732  0.83933985  0.60812043    -0.38800
O1613       O  0.97083244  0.67555411  0.55033108    -0.39500
O1614       O  0.93850511  0.71310098  0.52798745    -0.39600
C1615       C  0.15048988  0.75227699  0.77645590    -0.11900
C1616       C  0.13666034  0.74904279  0.74448126     0.05100
C1617       C  0.15707255  0.75395613  0.71650764    -0.07200
C1618       C  0.19073946  0.76170255  0.72088870    -0.07900
C1619       C  0.20490717  0.76445697  0.75288111    -0.02500
C1620       C  0.18434124  0.75931999  0.78092828     0.04400
N1621       N  0.19765783  0.75905453  0.81394103     0.66900
H1622       H  0.13493956  0.74859848  0.79821067     0.15800
H1623       H  0.20579482  0.76549340  0.69891306     0.15500
N1624       N  0.14359553  0.75309784  0.68360823     0.74600
O1625       O  0.18604760  0.77863105  0.83561535    -0.38900
O1626       O  0.21756618  0.73626975  0.82263715    -0.38800
O1627       O  0.13050862  0.77895475  0.67133291    -0.39500
O1628       O  0.14848479  0.72797801  0.66542079    -0.39600
C1629       C  0.29513412  0.47774882  0.59622571    -0.11900
C1630       C  0.26261691  0.47638829  0.60933243     0.05100
C1631       C  0.23696691  0.46340192  0.58928589    -0.07200
C1632       C  0.24387850  0.45382598  0.55646605    -0.07900
C1633       C  0.27604699  0.45680733  0.54286521    -0.02500
C1634       C  0.30213185  0.46778643  0.56348302     0.04400
N1635       N  0.33549358  0.47061088  0.55113853     0.66900
H1636       H  0.31548342  0.48636689  0.61161905     0.15800
H1637       H  0.22339023  0.44641719  0.54065293     0.15500
N1638       N  0.20333976  0.46206510  0.60096760     0.74600
O1639       O  0.35144442  0.49726802  0.55548722    -0.38900
O1640       O  0.35110709  0.44471630  0.54249668    -0.38800
O1641       O  0.18524274  0.48777586  0.59959364    -0.39500
O1642       O  0.19052868  0.43441202  0.60858511    -0.39600
C1643       C  0.29956629  0.63401265  0.73920382    -0.11900
C1644       C  0.26669573  0.62227125  0.73687951     0.05100
C1645       C  0.24008564  0.64407571  0.74406907    -0.07200
C1646       C  0.24682013  0.67699262  0.75309782    -0.07900
C1647       C  0.27962333  0.68900178  0.75490240    -0.02500
C1648       C  0.30634168  0.66696766  0.74864187     0.04400
N1649       N  0.34030200  0.67743352  0.75161346     0.66900
H1650       H  0.32020161  0.61704161  0.73508052     0.15800
H1651       H  0.22609046  0.69378827  0.75740746     0.15500
N1652       N  0.20612306  0.63353787  0.74103052     0.74600
O1653       O  0.35130339  0.68598052  0.77971616    -0.38900
O1654       O  0.36080166  0.67050284  0.72878051    -0.38800
O1655       O  0.18521542  0.64065928  0.76344697    -0.39500
O1656       O  0.19629687  0.61983684  0.71456698    -0.39600
C1657       C  0.30614535  0.60001347  0.48879829    -0.11900
C1658       C  0.27456399  0.61462139  0.49339160     0.05100
C1659       C  0.24618166  0.59448898  0.49111545    -0.07200
C1660       C  0.24978047  0.56061198  0.48383301    -0.07900
C1661       C  0.28130329  0.54578969  0.47839390    -0.02500
C1662       C  0.30981264  0.56607015  0.48142210     0.04400
N1663       N  0.34269348  0.55283097  0.47796778     0.66900
H1664       H  0.32828096  0.61527703  0.49039291     0.15800
H1665       H  0.22729482  0.54624057  0.48149170     0.15500
N1666       N  0.21344659  0.60846570  0.49348644     0.74600
O1667       O  0.35787657  0.55664596  0.45067999    -0.38900
O1668       O  0.35933160  0.54655401  0.50385037    -0.38800
O1669       O  0.20199314  0.62557458  0.46969272    -0.39500
O1670       O  0.19440833  0.59988154  0.51701226    -0.39600
C1671       C  0.26366486  0.78706986  0.66561239    -0.11900
C1672       C  0.29211116  0.77540600  0.68221531     0.05100
C1673       C  0.31574604  0.75617200  0.66467911    -0.07200
C1674       C  0.30894503  0.74684651  0.63170892    -0.07900
C1675       C  0.27893703  0.75589293  0.61623645    -0.02500
C1676       C  0.25638484  0.77691551  0.63309253     0.04400
N1677       N  0.22595751  0.78782201  0.61777216     0.66900
H1678       H  0.24561299  0.80197436  0.67908651     0.15800
H1679       H  0.32722793  0.73252554  0.61789094     0.15500
N1680       N  0.34617412  0.74534485  0.68017409     0.74600
O1681       O  0.20678574  0.76691071  0.60443383    -0.38900
O1682       O  0.21598488  0.81740833  0.62160735    -0.38800
O1683       O  0.35998086  0.71855916  0.67115026    -0.39500
O1684       O  0.36156242  0.76446510  0.69967930    -0.39600
C1685       C  0.13041033  0.74997516  0.45298353    -0.11900
C1686       C  0.14359641  0.74909830  0.48538356     0.05100
C1687       C  0.12218447  0.75335582  0.51277621    -0.07200
C1688       C  0.08806872  0.75807681  0.50732693    -0.07900
C1689       C  0.07480203  0.75868210  0.47490397    -0.02500
C1690       C  0.09622752  0.75405486  0.44740534     0.04400
N1691       N  0.08371034  0.75151950  0.41403259     0.66900
H1692       H  0.14679741  0.74640554  0.43181274     0.15800
H1693       H  0.07184919  0.76185228  0.52861160     0.15500
N1694       N  0.13492933  0.75507088  0.54596063     0.74600
O1695       O  0.09953110  0.76464812  0.39020046    -0.38900
O1696       O  0.05971131  0.73231138  0.40771070    -0.38800
O1697       O  0.15289846  0.77934912  0.55440336    -0.39500
O1698       O  0.12480226  0.73487014  0.56784869    -0.39600
C1699       C  0.55126760  0.81133474  0.52729356    -0.11900
C1700       C  0.55340324  0.79278160  0.49794563     0.05100
C1701       C  0.54809606  0.80869290  0.46691180    -0.07200
C1702       C  0.53691176  0.84176176  0.46617729    -0.07900
C1703       C  0.53251102  0.85964942  0.49568230    -0.02500
C1704       C  0.54046708  0.84450134  0.52655561     0.04400
N1705       N  0.53568868  0.86180832  0.55744845     0.66900
H1706       H  0.55487602  0.79914530  0.55113316     0.15800
H1707       H  0.53296864  0.85405256  0.44244633     0.15500
N1708       N  0.55445875  0.79159230  0.43612546     0.74600
O1709       O  0.50855874  0.87669998  0.56326004    -0.38900
O1710       O  0.55717953  0.85948766  0.58023996    -0.38800
O1711       O  0.53841104  0.79910860  0.41015436    -0.39500
O1712       O  0.57873598  0.77168634  0.43390336    -0.39600
C1713       C  0.60684578  0.65797425  0.53028913    -0.11900
C1714       C  0.58118810  0.67783798  0.54350088     0.05100
C1715       C  0.57857209  0.67938626  0.57866590    -0.07200
C1716       C  0.59813248  0.65831005  0.59865480    -0.07900
C1717       C  0.62104222  0.63495207  0.58548664    -0.02500
C1718       C  0.62733162  0.63763063  0.55030586     0.04400
N1719       N  0.65531749  0.62247422  0.53391176     0.66900
H1720       H  0.61271180  0.65945722  0.50407592     0.15800
H1721       H  0.59449516  0.65964555  0.62514972     0.15500
N1722       N  0.55570599  0.70161253  0.59489180     0.74600
O1723       O  0.65067209  0.60694993  0.50703275    -0.38900
O1724       O  0.68437762  0.63229461  0.54046488    -0.38800
O1725       O  0.53599421  0.69053622  0.61678269    -0.39500
O1726       O  0.55896918  0.73268729  0.59162360    -0.39600
C1727       C  0.50095272  0.71759066  0.41473003    -0.11900
C1728       C  0.53206697  0.70698850  0.42724868     0.05100
C1729       C  0.55690514  0.69706529  0.40447174    -0.07200
C1730       C  0.55085082  0.69970889  0.37029230    -0.07900
C1731       C  0.52063904  0.71267359  0.35779972    -0.02500
C1732       C  0.49512482  0.72085419  0.38047181     0.04400
N1733       N  0.46306889  0.73186230  0.36930575     0.66900
H1734       H  0.48075502  0.72348962  0.43164341     0.15800
H1735       H  0.57079776  0.69286771  0.35340666     0.15500
N1736       N  0.58901584  0.68591387  0.41527098     0.74600
O1737       O  0.44545488  0.71301911  0.35147955    -0.38900
O1738       O  0.45053925  0.75829789  0.38084544    -0.38800
O1739       O  0.59913647  0.65721436  0.40736589    -0.39500
O1740       O  0.60899510  0.70614161  0.42847730    -0.39600
C1741       C  0.44773679  0.69776054  0.49980925    -0.11900
C1742       C  0.46673797  0.72416569  0.51199584     0.05100
C1743       C  0.45195949  0.75578490  0.51610110    -0.07200
C1744       C  0.41859814  0.76056106  0.50731227    -0.07900
C1745       C  0.39946712  0.73431590  0.49470839    -0.02500
C1746       C  0.41432554  0.70248321  0.49119229     0.04400
N1747       N  0.39579749  0.67454211  0.47948398     0.66900
H1748       H  0.45931350  0.67371455  0.49555513     0.15800
H1749       H  0.40741629  0.78489464  0.51082090     0.15500
N1750       N  0.47055595  0.78316255  0.52932172     0.74600
O1751       O  0.39735876  0.66649169  0.44916620    -0.38900
O1752       O  0.38237723  0.65500062  0.50015024    -0.38800
O1753       O  0.46549906  0.81236441  0.51870951    -0.39500
O1754       O  0.48898828  0.77879439  0.55438118    -0.39600
C1755       C  0.11952529  0.55707556  0.13847928    -0.11900
C1756       C  0.11725960  0.59220611  0.14177208     0.05100
C1757       C  0.09797625  0.60354961  0.16954582    -0.07200
C1758       C  0.07769637  0.58134966  0.18748270    -0.07900
C1759       C  0.07700836  0.54689369  0.18120324    -0.02500
C1760       C  0.09830852  0.53493041  0.15567341     0.04400
N1761       N  0.09630173  0.50146355  0.14369482     0.66900
H1762       H  0.13655014  0.54588259  0.12108532     0.15800
H1763       H  0.06193808  0.59165578  0.20682376     0.15500
N1764       N  0.09877280  0.63724538  0.18102047     0.74600
O1765       O  0.06939003  0.49126555  0.13115940    -0.38900
O1766       O  0.12260278  0.48470961  0.13935201    -0.38800
O1767       O  0.07187976  0.65356531  0.18186270    -0.39500
O1768       O  0.12146407  0.64525424  0.20114887    -0.39600
C1769       C  0.33488317  0.74476145  0.22170472    -0.11900
C1770       C  0.32014926  0.71395810  0.21389177     0.05100
C1771       C  0.34094890  0.68652650  0.20675900    -0.07200
C1772       C  0.37555922  0.68998565  0.20970654    -0.07900
C1773       C  0.39004470  0.72021375  0.21989117    -0.02500
C1774       C  0.36940070  0.74814679  0.22477018     0.04400
N1775       N  0.38306366  0.78029231  0.23168760     0.66900
H1776       H  0.31941045  0.76657562  0.22555230     0.15800
H1777       H  0.39114830  0.66835194  0.20532205     0.15500
N1778       N  0.32761010  0.65469920  0.19801723     0.74600
O1779       O  0.40226941  0.79396716  0.21084417    -0.38900
O1780       O  0.37263537  0.79678430  0.25632491    -0.38800
O1781       O  0.33778585  0.64014591  0.17209048    -0.39500
O1782       O  0.30976335  0.63893847  0.21852753    -0.39600
C1783       C  0.21975290  0.70918209  0.31861135    -0.11900
C1784       C  0.24662905  0.69884088  0.29891285     0.05100
C1785       C  0.27841073  0.69571447  0.31346120    -0.07200
C1786       C  0.28369928  0.70690723  0.34586909    -0.07900
C1787       C  0.25762920  0.72064941  0.36456740    -0.02500
C1788       C  0.22497657  0.72047980  0.35124341     0.04400
N1789       N  0.19699157  0.73215565  0.37008394     0.66900
H1790       H  0.19525837  0.71179664  0.30759304     0.15800
H1791       H  0.30846684  0.70506233  0.35641660     0.15500
N1792       N  0.30557507  0.68140298  0.29528981     0.74600
O1793       O  0.19295047  0.76302351  0.37441880    -0.38900
O1794       O  0.17304182  0.71268020  0.37587449    -0.38800
O1795       O  0.33390303  0.69495851  0.29577375    -0.39500
O1796       O  0.30273241  0.65231147  0.28393340    -0.39600
C1797       C  0.24328230  0.80994426  0.20360970    -0.11900
C1798       C  0.24426306  0.78982282  0.23210053     0.05100
C1799       C  0.25218516  0.80478696  0.26300480    -0.07200
C1800       C  0.26001657  0.83880020  0.26464963    -0.07900
C1801       C  0.25856296  0.85893836  0.23624114    -0.02500
C1802       C  0.25014825  0.84408848  0.20533831     0.04400
N1803       N  0.24856696  0.86330146  0.17529622     0.66900
H1804       H  0.23807799  0.79897660  0.17956024     0.15800
H1805       H  0.26483194  0.84997292  0.28869380     0.15500
N1806       N  0.24837688  0.78685895  0.29347978     0.74600
O1807       O  0.27423910  0.87778422  0.16436644    -0.38900
O1808       O  0.22214567  0.86368793  0.15833469    -0.38800
O1809       O  0.27197926  0.78613322  0.31418413    -0.39500
O1810       O  0.21934298  0.77968506  0.30307422    -0.39600
C1811       C  0.17693510  0.69388035  0.16210245    -0.11900
C1812       C  0.20161636  0.67832242  0.18153736     0.05100
C1813       C  0.20389769  0.64317084  0.17914939    -0.07200
C1814       C  0.18179766  0.62508908  0.15890856    -0.07900
C1815       C  0.15737172  0.64049098  0.13854693    -0.02500
C1816       C  0.15499982  0.67617385  0.14130961     0.04400
N1817       N  0.12979116  0.69575828  0.12526897     0.66900
H1818       H  0.17341287  0.72039656  0.16299777     0.15800
H1819       H  0.18445300  0.59823031  0.15830635     0.15500
N1820       N  0.22918571  0.62508616  0.19653208     0.74600
O1821       O  0.10037829  0.69513182  0.13630785    -0.38900
O1822       O  0.13849123  0.72001404  0.10719365    -0.38800
O1823       O  0.22210428  0.61115939  0.22383496    -0.39500
O1824       O  0.25457842  0.61546453  0.18064566    -0.39600
C1825       C  0.32407988  0.50608666  0.97059893    -0.11900
C1826       C  0.31168642  0.50791109  0.00324424     0.05100
C1827       C  0.33289261  0.50091459  0.03020533    -0.07200
C1828       C  0.36577820  0.49109043  0.02402378    -0.07900
C1829       C  0.37808079  0.48891719  0.99129140    -0.02500
C1830       C  0.35698088  0.49663537  0.96435400     0.04400
N1831       N  0.36832747  0.49400829  0.93059379     0.66900
H1832       H  0.30772802  0.51104391  0.94970868     0.15800
H1833       H  0.38213081  0.48637597  0.04496838     0.15500
N1834       N  0.32139776  0.50337898  0.06383151     0.74600
O1835       O  0.38056184  0.46697134  0.92017678    -0.38900
O1836       O  0.36363248  0.51772014  0.91043158    -0.38800
O1837       O  0.31510724  0.47723878  0.08013206    -0.39500
O1838       O  0.32420963  0.53066673  0.07906713    -0.39600
C1839       C  0.24456333  0.53815989  0.91334788    -0.11900
C1840       C  0.23259249  0.51058414  0.93115039     0.05100
C1841       C  0.23124316  0.47932589  0.91499838    -0.07200
C1842       C  0.24296375  0.47583634  0.88230593    -0.07900
C1843       C  0.25490687  0.50329528  0.86455661    -0.02500
C1844       C  0.25550176  0.53478094  0.88025602     0.04400
N1845       N  0.26845881  0.56325385  0.86321759     0.66900
H1846       H  0.24705781  0.56199360  0.92567270     0.15800
H1847       H  0.24074033  0.45194500  0.87001494     0.15500
N1848       N  0.21644112  0.45120118  0.93105995     0.74600
O1849       O  0.24930996  0.58688743  0.85514663    -0.38900
O1850       O  0.29947980  0.56618230  0.85906207    -0.38800
O1851       O  0.18623524  0.45265275  0.93962493    -0.39500
O1852       O  0.23127591  0.42344112  0.93108269    -0.39600
C1853       C  0.16580490  0.55486695  0.04590513    -0.11900
C1854       C  0.20054489  0.55900530  0.04568709     0.05100
C1855       C  0.21325242  0.58569074  0.06505912    -0.07200
C1856       C  0.19221767  0.60331651  0.08694284    -0.07900
C1857       C  0.15770349  0.59670905  0.09027141    -0.02500
C1858       C  0.14449503  0.57383397  0.06635692     0.04400
N1859       N  0.10946394  0.56924105  0.06192487     0.66900
H1860       H  0.15480772  0.53642890  0.02964342     0.15800
H1861       H  0.20343556  0.62399869  0.09974328     0.15500
N1862       N  0.24636678  0.59802961  0.06096236     0.74600
O1863       O  0.09449141  0.58797194  0.04155382    -0.38900
O1864       O  0.09716523  0.54096931  0.06801641    -0.38800
O1865       O  0.25512543  0.61020245  0.03329014    -0.39500
O1866       O  0.26454203  0.60246408  0.08618232    -0.39600
C1867       C  0.26364529  0.42512951  0.02756241    -0.11900
C1868       C  0.23155713  0.43771278  0.02141833     0.05100
C1869       C  0.20644700  0.41578307  0.01042425    -0.07200
C1870       C  0.21523801  0.38280876  0.00231594    -0.07900
C1871       C  0.24807876  0.37104239  0.00598899    -0.02500
C1872       C  0.27224923  0.39230002  0.01980908     0.04400
N1873       N  0.30618751  0.38183625  0.02379629     0.66900
H1874       H  0.28315298  0.44192233  0.03535440     0.15800
H1875       H  0.19616151  0.36596820  0.99355047     0.15500
N1876       N  0.17240226  0.42654552  0.00668325     0.74600
O1877       O  0.32240690  0.37108713  0.99907402    -0.38900
O1878       O  0.32116997  0.38721897  0.05084532    -0.38800
O1879       O  0.15304439  0.41122438  0.98732648    -0.39500
O1880       O  0.16029133  0.44820506  0.02595548    -0.39600
C1881       C  0.05063876  0.80793042  0.96849555    -0.11900
C1882       C  0.05052587  0.79509276  0.00108315     0.05100
C1883       C  0.04547717  0.81693820  0.02811257    -0.07200
C1884       C  0.03705736  0.85026447  0.02164915    -0.07900
C1885       C  0.03384606  0.86217163  0.98884454    -0.02500
C1886       C  0.04250124  0.84117956  0.96217662     0.04400
N1887       N  0.04035996  0.85242214  0.92844793     0.66900
H1888       H  0.05465647  0.79141702  0.94757252     0.15800
H1889       H  0.03189460  0.86669621  0.04241039     0.15500
N1890       N  0.04654033  0.80551074  0.06199277     0.74600
O1891       O  0.06624236  0.86228405  0.91356425    -0.38900
O1892       O  0.01394113  0.84779734  0.91216132    -0.38800
O1893       O  0.06323793  0.82145160  0.08320281    -0.39500
O1894       O  0.02751077  0.78248491  0.07176055    -0.39600
C1895       C  0.99527312  0.70902848  0.88491651    -0.11900
C1896       C  0.01808349  0.72849894  0.86681076     0.05100
C1897       C  0.04883696  0.73685493  0.88195435    -0.07200
C1898       C  0.05551626  0.72665841  0.91451537    -0.07900
C1899       C  0.03202158  0.70885160  0.93294292    -0.02500
C1900       C  0.00182307  0.69925283  0.91788532     0.04400
N1901       N  0.97732036  0.68047420  0.93606339     0.66900
H1902       H  0.97207877  0.70154227  0.87346514     0.15800
H1903       H  0.07823735  0.73499238  0.92640599     0.15500
N1904       N  0.07339492  0.75638649  0.86511093     0.74600
O1905       O  0.94675832  0.68365908  0.92938594    -0.38900
O1906       O  0.98627275  0.65854242  0.95680054    -0.38800
O1907       O  0.07190597  0.78774557  0.86662623    -0.39500
O1908       O  0.09965706  0.74260292  0.85462005    -0.39600
C1909       C  0.05607991  0.65785240  0.07337553    -0.11900
C1910       C  0.07117062  0.67875624  0.04958357     0.05100
C1911       C  0.10622886  0.67679355  0.04644773    -0.07200
C1912       C  0.12487744  0.65678486  0.06820546    -0.07900
C1913       C  0.11026119  0.63698617  0.09361036    -0.02500
C1914       C  0.07449312  0.63662649  0.09450833     0.04400
N1915       N  0.05548297  0.61392210  0.11445427     0.66900
H1916       H  0.02936810  0.65614915  0.07492252     0.15800
H1917       H  0.15172479  0.65740189  0.06559784     0.15500
N1918       N  0.12374679  0.69543650  0.02154662     0.74600
O1919       O  0.03237451  0.62522537  0.13260774    -0.38900
O1920       O  0.05445902  0.58365408  0.10625169    -0.38800
O1921       O  0.14365116  0.71801068  0.03035687    -0.39500
O1922       O  0.12545113  0.68433247  0.99223184    -0.39600
C1923       C  0.12614329  0.14392844  0.55172477    -0.11900
C1924       C  0.12014502  0.14457395  0.58652321     0.05100
C1925       C  0.09734720  0.16983336  0.59739793    -0.07200
C1926       C  0.07652898  0.18616828  0.57430910    -0.07900
C1927       C  0.07864568  0.18060853  0.53981239    -0.02500
C1928       C  0.10619958  0.16139698  0.52861542     0.04400
N1929       N  0.11662033  0.16144837  0.49451541     0.66900
H1930       H  0.14708365  0.13041589  0.54166068     0.15800
H1931       H  0.05835038  0.20384404  0.58366205     0.15500
N1932       N  0.09422387  0.17944286  0.63155814     0.74600
O1933       O  0.12460794  0.18854394  0.48066637    -0.38900
O1934       O  0.12347176  0.13430719  0.48021541    -0.38800
O1935       O  0.06585872  0.17824668  0.64512983    -0.39500
O1936       O  0.11520953  0.19966128  0.64311304    -0.39600
C1937       C  0.33525511  0.96935738  0.50735488    -0.11900
C1938       C  0.32300596  0.00204115  0.51139161     0.05100
C1939       C  0.34518229  0.02900772  0.50847800    -0.07200
C1940       C  0.37904021  0.02268981  0.50307672    -0.07900
C1941       C  0.39133474  0.99006601  0.49906202    -0.02500
C1942       C  0.36908216  0.96312747  0.50104659     0.04400
N1943       N  0.38049767  0.92943697  0.49815455     0.66900
H1944       H  0.31844759  0.94839224  0.50944951     0.15800
H1945       H  0.39585533  0.04365583  0.50094856     0.15500
N1946       N  0.33360278  0.06283419  0.50871752     0.74600
O1947       O  0.40159224  0.91808854  0.51852871    -0.38900
O1948       O  0.36649371  0.90987805  0.47804396    -0.38800
O1949       O  0.34889430  0.08447391  0.52547926    -0.39500
O1950       O  0.31134993  0.07205450  0.48850061    -0.39600
C1951       C  0.27994774  0.00821277  0.42173228    -0.11900
C1952       C  0.24885901  0.01748145  0.43541166     0.05100
C1953       C  0.22156059  0.02126192  0.41387143    -0.07200
C1954       C  0.22514307  0.01325434  0.38004187    -0.07900
C1955       C  0.25565132  0.00134812  0.36696595    -0.02500
C1956       C  0.28336552  0.99944577  0.38819982     0.04400
N1957       N  0.31517430  0.98879694  0.37618602     0.66900
H1958       H  0.30169662  0.00634223  0.43756902     0.15800
H1959       H  0.20360431  0.01580543  0.36400619     0.15500
N1960       N  0.18989328  0.03223079  0.42595920     0.74600
O1961       O  0.33702307  0.01012629  0.36883749    -0.38900
O1962       O  0.32311824  0.95841498  0.37790107    -0.38800
O1963       O  0.18169649  0.06241808  0.42272942    -0.39500
O1964       O  0.16801081  0.01113002  0.43376224    -0.39600
C1965       C  0.23650134  0.88765909  0.47560986    -0.11900
C1966       C  0.25681748  0.87000716  0.49797505     0.05100
C1967       C  0.26567108  0.88545151  0.52842918    -0.07200
C1968       C  0.25499051  0.91796426  0.53528146    -0.07900
C1969       C  0.23563222  0.93575024  0.51239879    -0.02500
C1970       C  0.22593028  0.92018901  0.48252335     0.04400
N1971       N  0.20628599  0.93778205  0.45846883     0.66900
H1972       H  0.22883138  0.87622446  0.45246562     0.15800
H1973       H  0.26393517  0.93025380  0.55753030     0.15500
N1974       N  0.28616588  0.86891260  0.55240541     0.74600
O1975       O  0.21352091  0.93630554  0.42789279    -0.38900
O1976       O  0.17993570  0.95239391  0.46751081    -0.38800
O1977       O  0.31691082  0.87523536  0.55361504    -0.39500
O1978       O  0.27292292  0.85156767  0.57506288    -0.39600
C1979       C  0.19787457  0.09444816  0.59772577    -0.11900
C1980       C  0.16318085  0.09517824  0.59103248     0.05100
C1981       C  0.15247041  0.07197578  0.56616312    -0.07200
C1982       C  0.17555822  0.05311147  0.54749892    -0.07900
C1983       C  0.21010978  0.05402315  0.55296041    -0.02500
C1984       C  0.22093834  0.07524258  0.57915584     0.04400
N1985       N  0.25511508  0.07814264  0.58809939     0.66900
H1986       H  0.20813371  0.10837176  0.61815386     0.15800
H1987       H  0.16594576  0.03658701  0.52852065     0.15500
N1988       N  0.11808237  0.06636230  0.55920297     0.74600
O1989       O  0.27189303  0.10219678  0.57677954    -0.38900
O1990       O  0.26597436  0.06197706  0.61280841    -0.38800
O1991       O  0.10745804  0.07302283  0.53036752    -0.39500
O1992       O  0.10292272  0.04458049  0.57608045    -0.39600
C1993       C  0.68157142  0.46119974  0.95140390    -0.11900
C1994       C  0.70139962  0.46531302  0.97969689     0.05100
C1995       C  0.68613914  0.47552718  0.00982155    -0.07200
C1996       C  0.65232436  0.48423094  0.01035850    -0.07900
C1997       C  0.63282979  0.48150353  0.98173108    -0.02500
C1998       C  0.64767534  0.46952857  0.95191781     0.04400
N1999       N  0.62912673  0.46721079  0.92149748     0.66900
H2000       H  0.69298172  0.45408268  0.92798549     0.15800
H2001       H  0.64082232  0.49143839  0.03370552     0.15500
N2002       N  0.70403579  0.47467516  0.04055243     0.74600
O2003       O  0.61315087  0.49211880  0.91072724    -0.38900
O2004       O  0.63149525  0.44148826  0.90363310    -0.38800
O2005       O  0.70021151  0.49773071  0.06154110    -0.39500
O2006       O  0.71762361  0.44777839  0.04953740    -0.39600
C2007       C  0.78851110  0.45245922  0.06344971    -0.11900
C2008       C  0.78928657  0.48174548  0.04451203     0.05100
C2009       C  0.78287151  0.51256914  0.06044323    -0.07200
C2010       C  0.77278968  0.51313749  0.09399892    -0.07900
C2011       C  0.77008038  0.48360520  0.11238779    -0.02500
C2012       C  0.77838750  0.45297583  0.09686737     0.04400
N2013       N  0.77452644  0.42190005  0.11412607     0.66900
H2014       H  0.79247177  0.42863932  0.05142908     0.15800
H2015       H  0.76847952  0.53681580  0.10616889     0.15500
N2016       N  0.78760689  0.54344548  0.04303869     0.74600
O2017       O  0.74697396  0.41462934  0.12746635    -0.38900
O2018       O  0.79754762  0.40044002  0.11342933    -0.38800
O2019       O  0.76871014  0.56798702  0.04866729    -0.39500
O2020       O  0.81311643  0.54744009  0.02507397    -0.39600
C2021       C  0.97177111  0.46008471  0.66277620    -0.11900
C2022       C  0.99984221  0.45848352  0.68329509     0.05100
C2023       C  0.03176327  0.46279661  0.66886868    -0.07200
C2024       C  0.03475376  0.47248802  0.63535301    -0.07900
C2025       C  0.00648537  0.47625659  0.61539583    -0.02500
C2026       C  0.97469904  0.46933073  0.62920775     0.04400
N2027       N  0.94494560  0.47347213  0.60991159     0.66900
H2028       H  0.94715267  0.45728032  0.67352708     0.15800
H2029       H  0.05926627  0.47532467  0.62436998     0.15500
N2030       N  0.06120063  0.45499778  0.68743204     0.74600
O2031       O  0.92290343  0.45112259  0.61006530    -0.38900
O2032       O  0.93941891  0.50058248  0.59488836    -0.38800
O2033       O  0.08757314  0.47149024  0.68297732    -0.39500
O2034       O  0.06253374  0.42792590  0.70338927    -0.39600
C2035       C  0.00146476  0.59586809  0.71514303    -0.11900
C2036       C  0.00094197  0.61582370  0.74367181     0.05100
C2037       C  0.99069899  0.60152447  0.77438138    -0.07200
C2038       C  0.98161886  0.56786162  0.77588336    -0.07900
C2039       C  0.98354479  0.54756631  0.74768063    -0.02500
C2040       C  0.99216716  0.56216867  0.71672651     0.04400
N2041       N  0.98857395  0.54386125  0.68641334     0.66900
H2042       H  0.00723029  0.60699992  0.69121087     0.15800
H2043       H  0.97541106  0.55694164  0.79980620     0.15500
N2044       N  0.99097042  0.62044263  0.80464079     0.74600
O2045       O  0.00896105  0.54806404  0.66280382    -0.38900
O2046       O  0.96149550  0.52904893  0.68083929    -0.38800
O2047       O  0.96648810  0.61915271  0.82437487    -0.39500
O2048       O  0.01689085  0.63593286  0.81319043    -0.39600
C2049       C  0.08394877  0.44774886  0.76936089    -0.11900
C2050       C  0.06383847  0.47567789  0.77525244     0.05100
C2051       C  0.07870187  0.50747917  0.77666085    -0.07200
C2052       C  0.11244860  0.51112248  0.76835357    -0.07900
C2053       C  0.13189474  0.48357664  0.75915226    -0.02500
C2054       C  0.11773571  0.45142504  0.76109328     0.04400
N2055       N  0.13724100  0.42233422  0.75448933     0.66900
H2056       H  0.07284374  0.42319209  0.76871494     0.15800
H2057       H  0.12344815  0.53572852  0.76855139     0.15500
N2058       N  0.05969330  0.53615498  0.78650791     0.74600
O2059       O  0.15599614  0.41058692  0.77681765    -0.38900
O2060       O  0.13307823  0.40639574  0.72779181    -0.38800
O2061       O  0.03882297  0.53374496  0.80993797    -0.39500
O2062       O  0.06678239  0.56462274  0.77514343    -0.39600
C2063       C  0.94236290  0.35004716  0.88556677    -0.11900
C2064       C  0.90727002  0.34709672  0.88752379     0.05100
C2065       C  0.89531190  0.32413442  0.91197831    -0.07200
C2066       C  0.91747236  0.30280973  0.92928357    -0.07900
C2067       C  0.95238468  0.30366103  0.92474531    -0.02500
C2068       C  0.96449718  0.32880771  0.90279851     0.04400
N2069       N  0.99912556  0.33409504  0.89722179     0.66900
H2070       H  0.95367954  0.36916885  0.87044621     0.15800
H2071       H  0.90701380  0.28507348  0.94677227     0.15500
N2072       N  0.86056954  0.32169920  0.91960526     0.74600
O2073       O  0.01232306  0.32339504  0.87075582    -0.38900
O2074       O  0.01421340  0.35570142  0.91420517    -0.38800
O2075       O  0.84492395  0.29579525  0.91137598    -0.39500
O2076       O  0.84870100  0.33984825  0.94235476    -0.39600
C2077       C  0.82449924  0.38814288  0.88643073    -0.11900
C2078       C  0.85970163  0.38958029  0.88830934     0.05100
C2079       C  0.87237810  0.41137334  0.91348092    -0.07200
C2080       C  0.85080645  0.43199935  0.93248369    -0.07900
C2081       C  0.81582511  0.43182342  0.92877240    -0.02500
C2082       C  0.80311214  0.41010496  0.90386178     0.04400
N2083       N  0.76911998  0.41177494  0.89314693     0.66900
H2084       H  0.81253538  0.37051222  0.87035585     0.15800
H2085       H  0.86189584  0.44844719  0.95064764     0.15500
N2086       N  0.90721587  0.41274052  0.92085611     0.74600
O2087       O  0.75714921  0.43914488  0.88320073    -0.38900
O2088       O  0.75288244  0.38532250  0.88842714    -0.38800
O2089       O  0.92352686  0.43833050  0.91272452    -0.39500
O2090       O  0.91848251  0.39427977  0.94370866    -0.39600
C2091       C  0.90321158  0.42653799  0.84177105    -0.11900
C2092       C  0.90401768  0.39133681  0.83947237     0.05100
C2093       C  0.92508776  0.37826831  0.81374593    -0.07200
C2094       C  0.94515443  0.39945007  0.79399796    -0.07900
C2095       C  0.94548608  0.43433012  0.79783599    -0.02500
C2096       C  0.92497125  0.44748344  0.82363466     0.04400
N2097       N  0.92791895  0.48131458  0.83451382     0.66900
H2098       H  0.88656376  0.43872467  0.85887161     0.15800
H2099       H  0.96111643  0.38805901  0.77545729     0.15500
N2100       N  0.92620337  0.34342823  0.80644137     0.74600
O2101       O  0.90208147  0.49831236  0.84044502    -0.38900
O2102       O  0.95588724  0.49221360  0.84371079    -0.38800
O2103       O  0.90983385  0.33281818  0.78188006    -0.39500
O2104       O  0.95026744  0.32618526  0.81707659    -0.39600
C2105       C  0.81945870  0.33322739  0.79738510    -0.11900
C2106       C  0.82271097  0.29831292  0.80020570     0.05100
C2107       C  0.84885640  0.28662606  0.82103948    -0.07200
C2108       C  0.86699101  0.30894962  0.84107022    -0.07900
C2109       C  0.86195186  0.34395336  0.84073824    -0.02500
C2110       C  0.83905864  0.35572935  0.81604255     0.04400
N2111       N  0.83577192  0.39049645  0.80863040     0.66900
H2112       H  0.80195372  0.34341229  0.77954221     0.15800
H2113       H  0.88717145  0.29812000  0.85506837     0.15500
N2114       N  0.86039095  0.25289095  0.81984685     0.74600
O2115       O  0.85465392  0.40306022  0.78682932    -0.38900
O2116       O  0.80863561  0.40505201  0.81512946    -0.38800
O2117       O  0.87157327  0.24124678  0.79286154    -0.39500
O2118       O  0.86514254  0.23696746  0.84658310    -0.39600
C2119       C  0.73903075  0.60011702  0.96889962    -0.11900
C2120       C  0.76840190  0.61888224  0.96974283     0.05100
C2121       C  0.79888427  0.60258042  0.96206364    -0.07200
C2122       C  0.79953401  0.56839666  0.95489777    -0.07900
C2123       C  0.77048248  0.54944258  0.95546445    -0.02500
C2124       C  0.73967636  0.56587400  0.96122555     0.04400
N2125       N  0.70882000  0.54828615  0.95814855     0.66900
H2126       H  0.71533946  0.61236925  0.97323002     0.15800
H2127       H  0.82336839  0.55610573  0.95145586     0.15500
N2128       N  0.83004395  0.61922666  0.96515481     0.74600
O2129       O  0.70428675  0.52940295  0.93352015    -0.38900
O2130       O  0.68450203  0.55533453  0.97685805    -0.38800
O2131       O  0.85067121  0.60829918  0.98620529    -0.39500
O2132       O  0.84030366  0.63730050  0.94152822    -0.39600
C2133       C  0.58929640  0.74026113  0.94527383    -0.11900
C2134       C  0.57241581  0.76826712  0.95748097     0.05100
C2135       C  0.58913530  0.79028340  0.97879997    -0.07200
C2136       C  0.62177338  0.78292606  0.98898504    -0.07900
C2137       C  0.63778783  0.75349196  0.97861541    -0.02500
C2138       C  0.62136672  0.73204084  0.95630366     0.04400
N2139       N  0.63691748  0.70198208  0.94456724     0.66900
H2140       H  0.57654618  0.72362580  0.92846590     0.15800
H2141       H  0.63496043  0.80056114  0.00447917     0.15500
N2142       N  0.57309758  0.81994994  0.99036094     0.74600
O2143       O  0.65188000  0.68295957  0.96468752    -0.38900
O2144       O  0.63201005  0.69218718  0.91514534    -0.38800
O2145       O  0.56607162  0.82332481  0.02080269    -0.39500
O2146       O  0.56773227  0.84368504  0.97040654    -0.39600
C2147       C  0.91253888  0.76881187  0.99975166    -0.11900
C2148       C  0.89221386  0.74097444  0.99547177     0.05100
C2149       C  0.90574168  0.70881332  0.00064158    -0.07200
C2150       C  0.93935271  0.70528218  0.00922270    -0.07900
C2151       C  0.95997300  0.73301539  0.01222856    -0.02500
C2152       C  0.94623951  0.76515504  0.00757790     0.04400
N2153       N  0.96592659  0.79447998  0.01090644     0.66900
H2154       H  0.90230646  0.79362041  0.99647670     0.15800
H2155       H  0.94978795  0.68054813  0.01230283     0.15500
N2156       N  0.88600980  0.67940495  0.99729898     0.74600
O2157       O  0.97002269  0.81300320  0.98579981    -0.38900
O2158       O  0.96982934  0.80663094  0.03954876    -0.38800
O2159       O  0.89877320  0.65379319  0.98427523    -0.39500
O2160       O  0.85835533  0.67711834  0.01214956    -0.39600
C2161       C  0.77528061  0.72038896  0.12899495    -0.11900
C2162       C  0.77167265  0.74980128  0.11073031     0.05100
C2163       C  0.77809615  0.78068007  0.12661767    -0.07200
C2164       C  0.78813323  0.78133715  0.16013355    -0.07900
C2165       C  0.79110771  0.75187417  0.17859673    -0.02500
C2166       C  0.78531581  0.72108778  0.16238902     0.04400
N2167       N  0.79114143  0.69013518  0.17908815     0.66900
H2168       H  0.77194546  0.69658518  0.11680248     0.15800
H2169       H  0.79128623  0.80511049  0.17241665     0.15500
N2170       N  0.77281296  0.81165677  0.10953602     0.74600
O2171       O  0.76956900  0.66736625  0.17784913    -0.38900
O2172       O  0.82027319  0.68307805  0.18841708    -0.38800
O2173       O  0.74534889  0.81738147  0.09534453    -0.39500
O2174       O  0.79420189  0.83455087  0.11138093    -0.39600
C2175       C  0.53884289  0.30529541  0.97954793    -0.11900
C2176       C  0.54151760  0.29387443  0.01257735     0.05100
C2177       C  0.53907120  0.31718712  0.03864833    -0.07200
C2178       C  0.52995153  0.35028652  0.03137776    -0.07900
C2179       C  0.52444018  0.36080778  0.99829878    -0.02500
C2180       C  0.53047936  0.33825236  0.97222416     0.04400
N2181       N  0.52578020  0.34772479  0.93821515     0.66900
H2182       H  0.54131972  0.28801793  0.95909030     0.15800
H2183       H  0.52721545  0.36784712  0.05165041     0.15500
N2184       N  0.54571056  0.30777331  0.07236606     0.74600
O2185       O  0.55017969  0.35825807  0.92140132    -0.38900
O2186       O  0.49893386  0.34050603  0.92367545    -0.38800
O2187       O  0.57377120  0.31404788  0.08490809    -0.39500
O2188       O  0.52273547  0.29667752  0.09071156    -0.39600
C2189       C  0.43469139  0.19740014  0.01734211    -0.11900
C2190       C  0.45489971  0.22501982  0.02376831     0.05100
C2191       C  0.44069957  0.25723227  0.02255337    -0.07200
C2192       C  0.40726949  0.26140570  0.01427880    -0.07900
C2193       C  0.38735461  0.23408214  0.00667600    -0.02500
C2194       C  0.40113025  0.20165950  0.00861044     0.04400
N2195       N  0.38126026  0.17285788  0.00244541     0.66900
H2196       H  0.44533657  0.17257287  0.01763137     0.15800
H2197       H  0.39681736  0.28632931  0.01376238     0.15500
N2198       N  0.45956794  0.28613821  0.03054005     0.74600
O2199       O  0.38001130  0.16079522  0.97349509    -0.38900
O2200       O  0.36922363  0.15669831  0.02660405    -0.38800
O2201       O  0.46235098  0.30893930  0.00903533    -0.39500
O2202       O  0.46353446  0.29324011  0.06081473    -0.39600
C2203       C  0.55410791  0.15151356  0.08040591    -0.11900
C2204       C  0.56897603  0.17720152  0.06163252     0.05100
C2205       C  0.60429123  0.17898247  0.06259388    -0.07200
C2206       C  0.62273556  0.15653817  0.08243582    -0.07900
C2207       C  0.60801553  0.13122324  0.10234048    -0.02500
C2208       C  0.57236396  0.12900949  0.10038383     0.04400
N2209       N  0.55326969  0.10369283  0.11667821     0.66900
H2210       H  0.52770242  0.14715764  0.07871552     0.15800
H2211       H  0.64958305  0.15915929  0.08251130     0.15500
N2212       N  0.62233273  0.20374293  0.04415008     0.74600
O2213       O  0.52962174  0.11229863  0.13561058    -0.38900
O2214       O  0.55352016  0.07445948  0.10530502    -0.38800
O2215       O  0.64436169  0.22080132  0.05855825    -0.39500
O2216       O  0.62024167  0.20495970  0.01283004    -0.39600
C2217       C  0.44254511  0.50717865  0.75443949    -0.11900
C2218       C  0.45638267  0.51013226  0.72226756     0.05100
C2219       C  0.43514637  0.50783369  0.69448441    -0.07200
C2220       C  0.40086209  0.50328958  0.69935314    -0.07900
C2221       C  0.38712519  0.49975654  0.73147510    -0.02500
C2222       C  0.40832627  0.50192106  0.75924358     0.04400
N2223       N  0.39533574  0.50054642  0.79240675     0.66900
H2224       H  0.45834996  0.50933272  0.77614803     0.15800
H2225       H  0.38491528  0.50142047  0.67769604     0.15500
N2226       N  0.44812223  0.50794139  0.66124189     0.74600
O2227       O  0.40419856  0.47739463  0.81178922    -0.38900
O2228       O  0.37863063  0.52471351  0.80365456    -0.38800
O2229       O  0.46817916  0.48546076  0.65212210    -0.39500
O2230       O  0.43677906  0.52818847  0.63999231    -0.39600
C2231       C  0.51921902  0.53728444  0.80945796    -0.11900
C2232       C  0.54110858  0.51564336  0.79303240     0.05100
C2233       C  0.55472710  0.48828329  0.81028998    -0.07200
C2234       C  0.54464711  0.48192651  0.84303299    -0.07900
C2235       C  0.52157543  0.50263600  0.85934495    -0.02500
C2236       C  0.50975076  0.53143824  0.84256844     0.04400
N2237       N  0.48798983  0.55481743  0.85847027     0.66900
H2238       H  0.50805963  0.55786203  0.79592346     0.15800
H2239       H  0.55488877  0.46038783  0.85572006     0.15500
N2240       N  0.57771192  0.46597034  0.79429683     0.74600
O2241       O  0.49941728  0.57443017  0.88011456    -0.38900
O2242       O  0.45903431  0.55952143  0.84719346    -0.38800
O2243       O  0.59968311  0.47721661  0.77477776    -0.39500
O2244       O  0.57806265  0.43543334  0.80187096    -0.39600
C2245       C  0.55751862  0.56635094  0.64732049    -0.11900
C2246       C  0.57109502  0.54743438  0.67355474     0.05100
C2247       C  0.60624880  0.54638088  0.67590468    -0.07200
C2248       C  0.62605735  0.56570748  0.65458613    -0.07900
C2249       C  0.61277312  0.58761114  0.63038534    -0.02500
C2250       C  0.57741234  0.58527698  0.62524176     0.04400
N2251       N  0.56070793  0.59949208  0.59701630     0.66900
H2252       H  0.53116602  0.56547210  0.64234737     0.15800
H2253       H  0.65259072  0.56442253  0.65813435     0.15500
N2254       N  0.62264232  0.52629434  0.70042059     0.74600
O2255       O  0.56702972  0.58867017  0.56822934    -0.38900
O2256       O  0.53415302  0.61583021  0.60146199    -0.38800
O2257       O  0.62977701  0.49649001  0.69359180    -0.39500
O2258       O  0.63740257  0.54024415  0.72431064    -0.39600
C2259       C  0.49873294  0.21808269  0.59950673    -0.11900
C2260       C  0.50378634  0.24669090  0.61868453     0.05100
C2261       C  0.49879479  0.27832626  0.60371620    -0.07200
C2262       C  0.48928748  0.28067295  0.57012869    -0.07900
C2263       C  0.48593895  0.25209582  0.55050742    -0.02500
C2264       C  0.48916595  0.22049327  0.56589527     0.04400
N2265       N  0.47989807  0.19089967  0.54842352     0.66900
H2266       H  0.50033078  0.19379541  0.61122948     0.15800
H2267       H  0.48714254  0.30504151  0.55866341     0.15500
N2268       N  0.50536125  0.30832874  0.62178334     0.74600
O2269       O  0.49555645  0.16401252  0.55323034    -0.38900
O2270       O  0.45241432  0.19021150  0.53326848    -0.38800
O2271       O  0.53349476  0.31268829  0.63503657    -0.39500
O2272       O  0.48445830  0.33186164  0.62157945    -0.39600
C2273       C  0.65796360  0.25129613  0.71921298    -0.11900
C2274       C  0.63921265  0.24997417  0.74858469     0.05100
C2275       C  0.65464826  0.25937585  0.77884653    -0.07200
C2276       C  0.68815458  0.26898043  0.77936579    -0.07900
C2277       C  0.70742526  0.26868808  0.75033498    -0.02500
C2278       C  0.69155339  0.26107526  0.71969932     0.04400
N2279       N  0.70861026  0.26490353  0.68862740     0.66900
H2280       H  0.64613595  0.24608646  0.69556892     0.15800
H2281       H  0.69978457  0.27398230  0.80315192     0.15500
N2282       N  0.63705564  0.25769306  0.80974789     0.74600
O2283       O  0.70988537  0.24079227  0.66855560    -0.38900
O2284       O  0.71447089  0.29388478  0.67799738    -0.38800
O2285       O  0.62894864  0.22973664  0.82164465    -0.39500
O2286       O  0.63366750  0.28359713  0.82715354    -0.39600
C2287       C  0.55225621  0.37967949  0.73543862    -0.11900
C2288       C  0.51930901  0.36814912  0.73781119     0.05100
C2289       C  0.49309029  0.38911748  0.72760017    -0.07200
C2290       C  0.50001416  0.42134041  0.71657674    -0.07900
C2291       C  0.53275760  0.43356974  0.71569763    -0.02500
C2292       C  0.55934485  0.41194346  0.72381654     0.04400
N2293       N  0.59340627  0.42187414  0.71984836     0.66900
H2294       H  0.57269653  0.36299985  0.74131932     0.15800
H2295       H  0.47934280  0.43773939  0.71066733     0.15500
N2296       N  0.45913864  0.37866667  0.73003395     0.74600
O2297       O  0.60339265  0.43149958  0.69163614    -0.38900
O2298       O  0.61475101  0.41318499  0.74123368    -0.38800
O2299       O  0.44579284  0.37499801  0.75828489    -0.39500
O2300       O  0.44155586  0.37644465  0.70413322    -0.39600
C2301       C  0.49802067  0.20787624  0.89414665    -0.11900
C2302       C  0.52043508  0.22906020  0.87731339     0.05100
C2303       C  0.54936328  0.23975362  0.89466196    -0.07200
C2304       C  0.55494599  0.22887260  0.92744193    -0.07900
C2305       C  0.53185734  0.20902845  0.94426627    -0.02500
C2306       C  0.50326376  0.19800560  0.92733794     0.04400
N2307       N  0.47908231  0.17733033  0.94377045     0.66900
H2308       H  0.47610003  0.19880392  0.88142779     0.15800
H2309       H  0.57612672  0.23854934  0.94101691     0.15500
N2310       N  0.57275312  0.26270460  0.88046595     0.74600
O2311       O  0.44862341  0.17960280  0.93632830    -0.38900
O2312       O  0.48835946  0.15490412  0.96382809    -0.38800
O2313       O  0.56296505  0.29135349  0.87184970    -0.39500
O2314       O  0.60349131  0.25797737  0.88513866    -0.39600
C2315       C  0.49989109  0.09517507  0.72189724    -0.11900
C2316       C  0.50453643  0.11253745  0.75158086     0.05100
C2317       C  0.49802359  0.09609374  0.78221108    -0.07200
C2318       C  0.48739621  0.06269714  0.78237405    -0.07900
C2319       C  0.48300126  0.04515703  0.75254663    -0.02500
C2320       C  0.48863995  0.06219514  0.72205667     0.04400
N2321       N  0.48102463  0.04707538  0.69085605     0.66900
H2322       H  0.50305483  0.10792955  0.69827560     0.15800
H2323       H  0.48439618  0.04989022  0.80597041     0.15500
N2324       N  0.50320370  0.11266042  0.81336233     0.74600
O2325       O  0.45089670  0.04447636  0.68254423    -0.38900
O2326       O  0.50329526  0.04508457  0.66869832    -0.38800
O2327       O  0.48161757  0.11066902  0.83617645    -0.39500
O2328       O  0.53034992  0.12738961  0.81897933    -0.39600
C2329       C  0.27355418  0.21064084  0.81392768    -0.11900
C2330       C  0.24158220  0.21238340  0.79993245     0.05100
C2331       C  0.21409287  0.21961964  0.82082571    -0.07200
C2332       C  0.21980552  0.22775950  0.85444083    -0.07900
C2333       C  0.25219460  0.22819026  0.86779044    -0.02500
C2334       C  0.27902195  0.21796424  0.84746335     0.04400
N2335       N  0.31227679  0.21636543  0.86002444     0.66900
H2336       H  0.29481949  0.20491337  0.79826589     0.15800
H2337       H  0.19879263  0.23424437  0.87014113     0.15500
N2338       N  0.18059596  0.22043885  0.80831687     0.74600
O2339       O  0.32323234  0.18927776  0.87172388    -0.38900
O2340       O  0.33225528  0.23982847  0.85400010    -0.38800
O2341       O  0.15733096  0.20766316  0.82519847    -0.39500
O2342       O  0.17348796  0.23700215  0.78252363    -0.39600
C2343       C  0.18152786  0.16446308  0.62512902    -0.11900
C2344       C  0.15755350  0.14154132  0.63750582     0.05100
C2345       C  0.15264728  0.14244342  0.67310183    -0.07200
C2346       C  0.17260596  0.16288610  0.69349211    -0.07900
C2347       C  0.19804013  0.18358824  0.68114875    -0.02500
C2348       C  0.20147101  0.18476370  0.64592736     0.04400
N2349       N  0.22574145  0.20584821  0.63048637     0.66900
H2350       H  0.18541575  0.16611743  0.59846780     0.15800
H2351       H  0.16652289  0.16301472  0.71959381     0.15500
N2352       N  0.12665479  0.12482344  0.69009151     0.74600
O2353       O  0.24754886  0.19326782  0.61160831    -0.38900
O2354       O  0.22164135  0.23700494  0.63053178    -0.38800
O2355       O  0.13415915  0.10659852  0.71464663    -0.39500
O2356       O  0.09697381  0.13477250  0.68742557    -0.39600
C2357       C  0.25554278  0.34591974  0.75993835    -0.11900
C2358       C  0.25678551  0.36534645  0.73113511     0.05100
C2359       C  0.24961643  0.35023412  0.70011256    -0.07200
C2360       C  0.24124188  0.31629741  0.69858903    -0.07900
C2361       C  0.23979541  0.29677268  0.72753652    -0.02500
C2362       C  0.24660486  0.31225820  0.75858933     0.04400
N2363       N  0.24202695  0.29506480  0.78943137     0.66900
H2364       H  0.25945603  0.35743644  0.78399637     0.15800
H2365       H  0.23720320  0.30488949  0.67451531     0.15500
N2366       N  0.25178818  0.36886872  0.66978036     0.74600
O2367       O  0.26624945  0.29251020  0.80927595    -0.38900
O2368       O  0.21284599  0.29208668  0.80069051    -0.38800
O2369       O  0.27982014  0.37835817  0.65917141    -0.39500
O2370       O  0.22627059  0.37287471  0.65190776    -0.39600
C2371       C  0.36888281  0.19944851  0.73881898    -0.11900
C2372       C  0.38247904  0.23161871  0.73564435     0.05100
C2373       C  0.36265935  0.25722017  0.72160337    -0.07200
C2374       C  0.32993229  0.25038060  0.71189908    -0.07900
C2375       C  0.31604005  0.21868703  0.71633272    -0.02500
C2376       C  0.33598016  0.19283948  0.72908520     0.04400
N2377       N  0.32268566  0.16014083  0.73341009     0.66900
H2378       H  0.38396394  0.17923440  0.74853336     0.15800
H2379       H  0.31430570  0.27069246  0.70323670     0.15500
N2380       N  0.37454109  0.29076937  0.71900833     0.74600
O2381       O  0.32074047  0.14075109  0.70882189    -0.38900
O2382       O  0.31460745  0.14993943  0.76204008    -0.38800
O2383       O  0.37094545  0.30679789  0.69216820    -0.39500
O2384       O  0.38474664  0.30573329  0.74462580    -0.39600
C2385       C  0.06021728  0.00685814  0.80607543    -0.11900
C2386       C  0.03615559  0.02519826  0.78873860     0.05100
C2387       C  0.00648684  0.03452700  0.80505484    -0.07200
C2388       C  0.00045895  0.02345767  0.83760080    -0.07900
C2389       C  0.02365690  0.00349748  0.85466845    -0.02500
C2390       C  0.05435351  0.99591095  0.83874114     0.04400
N2391       N  0.07945774  0.97627634  0.85474771     0.66900
H2392       H  0.08255957  0.99864951  0.79324667     0.15800
H2393       H  0.97738002  0.03067629  0.84962757     0.15500
N2394       N  0.98187522  0.05441802  0.78833396     0.74600
O2395       O  0.07623880  0.94505529  0.85633227    -0.38900
O2396       O  0.10714254  0.98924154  0.86182594    -0.38800
O2397       O  0.95131375  0.05067050  0.79477690    -0.39500
O2398       O  0.99082779  0.07786458  0.76935727    -0.39600
C2399       C  0.90149920  0.02629420  0.72854444    -0.11900
C2400       C  0.89134094  0.99321527  0.73400441     0.05100
C2401       C  0.91364491  0.96715354  0.72640376    -0.07200
C2402       C  0.94589681  0.97471322  0.71541890    -0.07900
C2403       C  0.95667038  0.00782515  0.71148913    -0.02500
C2404       C  0.93353799  0.03390215  0.71664319     0.04400
N2405       N  0.94190242  0.06805636  0.71026549     0.66900
H2406       H  0.88390479  0.04644567  0.73238712     0.15800
H2407       H  0.96339130  0.95443868  0.71186997     0.15500
N2408       N  0.90458067  0.93299102  0.73127831     0.74600
O2409       O  0.95089309  0.07664370  0.68138558    -0.38900
O2410       O  0.93229660  0.09033980  0.73024214    -0.38800
O2411       O  0.91026727  0.91188347  0.70871865    -0.39500
O2412       O  0.89415509  0.92324584  0.75932633    -0.39600
C2413       C  0.04389332  0.92575764  0.75191075    -0.11900
C2414       C  0.03956377  0.93873538  0.71973963     0.05100
C2415       C  0.02859255  0.91778328  0.69406268    -0.07200
C2416       C  0.02059291  0.88467104  0.70129674    -0.07900
C2417       C  0.02355599  0.87189338  0.73385308    -0.02500
C2418       C  0.03639350  0.89253539  0.75910009     0.04400
N2419       N  0.04049279  0.88068315  0.79243307     0.66900
H2420       H  0.05195283  0.94190501  0.77189633     0.15800
H2421       H  0.01175671  0.86893702  0.68130567     0.15500
N2422       N  0.02362104  0.93022541  0.66103396     0.74600
O2423       O  0.06854608  0.86993845  0.80173591    -0.38900
O2424       O  0.01823527  0.88656923  0.81387119    -0.38800
O2425       O  0.04227251  0.92042958  0.63768476    -0.39500
O2426       O  0.99842815  0.94789752  0.65446952    -0.39600
C2427       C  0.05762791  0.07439849  0.64703799    -0.11900
C2428       C  0.07170094  0.05148519  0.66948121     0.05100
C2429       C  0.10692952  0.04872293  0.66952958    -0.07200
C2430       C  0.12644129  0.06943131  0.64899349    -0.07900
C2431       C  0.11260543  0.09466736  0.62845206    -0.02500
C2432       C  0.07681625  0.09466126  0.62578488     0.04400
N2433       N  0.05850061  0.11285480  0.60098836     0.66900
H2434       H  0.03105462  0.07709897  0.64523580     0.15800
H2435       H  0.15326992  0.06725374  0.65097654     0.15500
N2436       N  0.12375745  0.02539811  0.69071160     0.74600
O2437       O  0.03280803  0.12893955  0.60956419    -0.38900
O2438       O  0.06156171  0.10499258  0.57077717    -0.38800
O2439       O  0.14189072  0.00312922  0.67787224    -0.39500
O2440       O  0.12620314  0.03116771  0.72147417    -0.39600
C2441       C  0.72421771  0.80712195  0.75020895    -0.11900
C2442       C  0.72494451  0.79621357  0.71702230     0.05100
C2443       C  0.72925430  0.81971231  0.69126799    -0.07200
C2444       C  0.73757935  0.85259076  0.69954007    -0.07900
C2445       C  0.74067176  0.86242707  0.73299948    -0.02500
C2446       C  0.73163736  0.83999178  0.75836641     0.04400
N2447       N  0.73228394  0.84949114  0.79262886     0.66900
H2448       H  0.72014254  0.78941840  0.77017228     0.15800
H2449       H  0.74250137  0.87032061  0.67974419     0.15500
N2450       N  0.72644090  0.81060549  0.65691167     0.74600
O2451       O  0.70627936  0.86103917  0.80607145    -0.38900
O2452       O  0.75665404  0.84111433  0.81060942    -0.38800
O2453       O  0.70813899  0.82751479  0.63770536    -0.39500
O2454       O  0.74409591  0.78749887  0.64501684    -0.39600
C2455       C  0.83565157  0.70060552  0.70756769    -0.11900
C2456       C  0.81521305  0.72842930  0.70202508     0.05100
C2457       C  0.82962407  0.76053210  0.70317981    -0.07200
C2458       C  0.86295699  0.76436595  0.71227246    -0.07900
C2459       C  0.88254406  0.73681255  0.72069999    -0.02500
C2460       C  0.86893879  0.70454375  0.71744883     0.04400
N2461       N  0.88845682  0.67557734  0.72452157     0.66900
H2462       H  0.82511998  0.67580958  0.70672164     0.15800
H2463       H  0.87341367  0.78920126  0.71332838     0.15500
N2464       N  0.81089309  0.78965827  0.69486128     0.74600
O2465       O  0.88637092  0.66177690  0.75271411    -0.38900
O2466       O  0.90458357  0.66153867  0.70147349    -0.38800
O2467       O  0.80677656  0.81191380  0.71663077    -0.39500
O2468       O  0.80793245  0.79740514  0.66456121    -0.39600
C2469       C  0.71863973  0.72956168  0.80729615    -0.11900
C2470       C  0.74567276  0.71834734  0.78824067     0.05100
C2471       C  0.77764361  0.71753425  0.80272198    -0.07200
C2472       C  0.78212732  0.72844568  0.83546028    -0.07900
C2473       C  0.75536767  0.74033227  0.85454036    -0.02500
C2474       C  0.72311536  0.74095226  0.84007106     0.04400
N2475       N  0.69464432  0.75297838  0.85801057     0.66900
H2476       H  0.69424595  0.73150835  0.79592572     0.15800
H2477       H  0.80679123  0.72705907  0.84630148     0.15500
N2478       N  0.80575007  0.70501300  0.78462354     0.74600
O2479       O  0.69257318  0.78351547  0.86511538    -0.38900
O2480       O  0.66882429  0.73520142  0.85986104    -0.38800
O2481       O  0.83386931  0.71866736  0.78765520    -0.39500
O2482       O  0.80365371  0.67736773  0.76993034    -0.39600
C2483       C  0.67323545  0.66123817  0.68879613    -0.11900
C2484       C  0.69960871  0.67925560  0.67432662     0.05100
C2485       C  0.70246950  0.67760761  0.63917876    -0.07200
C2486       C  0.68200527  0.65610591  0.62091035    -0.07900
C2487       C  0.65778927  0.63507590  0.63532754    -0.02500
C2488       C  0.65197681  0.64028699  0.67031667     0.04400
N2489       N  0.62364049  0.62727219  0.68777659     0.66900
H2490       H  0.66727864  0.66479747  0.71486348     0.15800
H2491       H  0.68582456  0.65549579  0.59393705     0.15500
N2492       N  0.72593521  0.69763939  0.62131863     0.74600
O2493       O  0.62796597  0.61288595  0.71543646    -0.38900
O2494       O  0.59491797  0.63798248  0.68083977    -0.38800
O2495       O  0.74621956  0.68398060  0.60148528    -0.39500
O2496       O  0.72162136  0.72868601  0.61970072    -0.39600
C2497       C  0.83585223  0.00163237  0.03118882    -0.11900
C2498       C  0.81684648  0.01431100  0.00473233     0.05100
C2499       C  0.83117379  0.01530671  0.97257874    -0.07200
C2500       C  0.86369583  0.00430300  0.96746779    -0.07900
C2501       C  0.88292263  0.99192644  0.99368845    -0.02500
C2502       C  0.86875902  0.99053341  0.02600393     0.04400
N2503       N  0.88760217  0.97883650  0.05388429     0.66900
H2504       H  0.82484839  0.99960957  0.05577491     0.15800
H2505       H  0.87414366  0.00586149  0.94258866     0.15500
N2506       N  0.81317812  0.02751108  0.94448507     0.74600
O2507       O  0.91101997  0.99629520  0.06530157    -0.38900
O2508       O  0.87808325  0.95339845  0.06973779    -0.38800
O2509       O  0.81270049  0.05847195  0.93919808    -0.39500
O2510       O  0.80794922  0.00801361  0.92047963    -0.39600
C2511       C  0.72634244  0.98523494  0.92318931    -0.11900
C2512       C  0.72926434  0.01769119  0.93561332     0.05100
C2513       C  0.73733497  0.04392409  0.91354054    -0.07200
C2514       C  0.74673042  0.03612295  0.88068084    -0.07900
C2515       C  0.74801165  0.00286079  0.86967179    -0.02500
C2516       C  0.73608308  0.97748504  0.89086834     0.04400
N2517       N  0.73590078  0.94332449  0.88084451     0.66900
H2518       H  0.71946694  0.96503467  0.93976110     0.15800
H2519       H  0.75370269  0.05609142  0.86387806     0.15500
N2520       N  0.73683649  0.07816997  0.92383291     0.74600
O2521       O  0.76288053  0.92717171  0.87958031    -0.38900
O2522       O  0.70858722  0.92822047  0.87755833    -0.38800
O2523       O  0.75154644  0.08731698  0.94997736    -0.39500
O2524       O  0.72380599  0.09993440  0.90519936    -0.39600
C2525       C  0.76982660  0.92875008  0.02326332    -0.11900
C2526       C  0.73817912  0.94236153  0.01729161     0.05100
C2527       C  0.71375533  0.92269746  0.00167818    -0.07200
C2528       C  0.72212840  0.89041597  0.99095149    -0.07900
C2529       C  0.75429620  0.87723047  0.99574859    -0.02500
C2530       C  0.77832435  0.89679913  0.01226239     0.04400
N2531       N  0.81208304  0.88563712  0.01593390     0.66900
H2532       H  0.78909013  0.94427960  0.03389591     0.15800
H2533       H  0.70312518  0.87525127  0.97939955     0.15500
N2534       N  0.68084461  0.93548932  0.99563731     0.74600
O2535       O  0.82862868  0.87694536  0.99061857    -0.38900
O2536       O  0.82668746  0.88859224  0.04356613    -0.38800
O2537       O  0.66505674  0.92693893  0.96990328    -0.39500
O2538       O  0.66604867  0.95233700  0.01768444    -0.39600
C2539       C  0.66880023  0.05518711  0.04990404    -0.11900
C2540       C  0.70347262  0.05980496  0.05231913     0.05100
C2541       C  0.71441728  0.08524111  0.07413283    -0.07200
C2542       C  0.69163352  0.10098940  0.09576012    -0.07900
C2543       C  0.65720901  0.09322106  0.09645402    -0.02500
C2544       C  0.64586397  0.07273482  0.06976920     0.04400
N2545       N  0.61128842  0.06930861  0.06190584     0.66900
H2546       H  0.65914128  0.03787833  0.03167244     0.15800
H2547       H  0.70146797  0.12070515  0.11096966     0.15500
N2548       N  0.74763669  0.09781696  0.07321458     0.74600
O2549       O  0.59831901  0.09052361  0.04262135    -0.38900
O2550       O  0.59809234  0.04087976  0.06373203    -0.38800
O2551       O  0.75734806  0.11387317  0.04794103    -0.39500
O2552       O  0.76440493  0.09923063  0.09972852    -0.39600
loop_ 
_geom_bond_atom_site_label_1 
_geom_bond_atom_site_label_2 
_geom_bond_distance 
_geom_bond_site_symmetry_2 
_ccdc_geom_bond_type 
C1            C2   1.568       .  S
C1            C7   1.554   1_545  S
C1            C5   1.551   1_554  S
C1         C2540   1.552       .  S
C2            H9   1.078       .  S
C2            C3   1.372       .  D
C3            C4   1.513   1_544  S
C3         C2498   1.484       .  S
C4            C8   1.517   1_556  S
C4            C6   1.519   1_565  S
C4           H10   1.112       .  S
C5           H11   1.086       .  S
C5            C6   1.363       .  D
C6         C2512   1.475       .  S
C7           H12   1.086       .  S
C7            C8   1.367       .  D
C8         C2526   1.476       .  S
C13          C14   1.563       .  S
C13          C19   1.558       .  S
C13          C17   1.549       .  S
C13        C2484   1.554       .  S
C14          H21   1.083       .  S
C14          C15   1.368       .  D
C15          C16   1.518       .  S
C15        C2470   1.482       .  S
C16          C20   1.521       .  S
C16          C18   1.521       .  S
C16          H22   1.111       .  S
C17          H23   1.086       .  S
C17          C18   1.366       .  D
C18        C2442   1.474       .  S
C19          H24   1.085       .  S
C19          C20   1.371       .  D
C20        C2456   1.487       .  S
C25          C26   1.548   1_545  S
C25          C31   1.551       .  S
C25          C29   1.566       .  S
C25        C2428   1.550       .  S
C26          H33   1.085       .  S
C26          C27   1.366       .  D
C27          C28   1.520       .  S
C27        C2414   1.471       .  S
C28          C32   1.513   1_565  S
C28          C30   1.521   1_465  S
C28          H34   1.113       .  S
C29          H35   1.078   1_455  S
C29          C30   1.370   1_455  D
C30        C2403   1.489       .  S
C31          H36   1.086       .  S
C31          C32   1.364       .  D
C32        C2386   1.472       .  S
C37          C38   1.553       .  S
C37          C43   1.562       .  S
C37          C41   1.567       .  S
C37        C2347   1.571       .  S
C38          H45   1.085       .  S
C38          C39   1.367       .  D
C39          C40   1.519       .  S
C39        C2375   1.477       .  S
C40          C44   1.518       .  S
C40          C42   1.518       .  S
C40          H46   1.109       .  S
C41          H47   1.081       .  S
C41          C42   1.368       .  D
C42        C2330   1.485       .  S
C43          H48   1.085       .  S
C43          C44   1.378       .  D
C44        C2361   1.498       .  S
Zn49         O53   1.941       .  S
Zn49         O54   1.995       .  S
Zn49         O58   1.970       .  S
Zn49         O65   1.987       .  S
Zn50         O53   1.957       .  S
Zn50         O55   1.967       .  S
Zn50         O57   2.035       .  S
Zn50         O61   2.027       .  S
Zn51         O53   1.993       .  S
Zn51         O56   2.089       .  S
Zn51         O59   2.084       .  S
Zn51         O62   2.098       .  S
Zn52         O53   1.949       .  S
Zn52         O60   1.956       .  S
Zn52         O63   2.024       .  S
Zn52         O64   2.023       .  S
O54          C66   1.271       .  A
O55          C67   1.267       .  A
O56          C68   1.281       .  A
O57          C66   1.275       .  A
O58          C68   1.266       .  A
O59          C67   1.284       .  A
O60          C69   1.266       .  A
O61          C70   1.276       .  A
O62          C69   1.284       .  A
O63          C70   1.273       .  A
O64          C71   1.274       .  A
O65          C71   1.270       .  A
C66        C2372   1.485       .  S
C67        C2316   1.483       .  S
C68        C2260   1.486       .  S
C69        C2274   1.488       .  S
C70        C2302   1.499       .  S
C71        C2288   1.475       .  S
C72          C73   1.562       .  S
C72          C78   1.549       .  S
C72          C76   1.549       .  S
C72        C2246   1.548       .  S
C73          H80   1.081       .  S
C73          C74   1.375       .  D
C74          C75   1.521       .  S
C74        C2218   1.490       .  S
C75          C79   1.522       .  S
C75          C77   1.515       .  S
C75          H81   1.112       .  S
C76          H82   1.085       .  S
C76          C77   1.362       .  D
C77        C2232   1.468       .  S
C78          H83   1.084       .  S
C78          C79   1.366       .  D
C79        C2291   1.481       .  S
C84          C85   1.560       .  S
C84          C90   1.550       .  S
C84          C88   1.564       .  S
C84        C2204   1.559       .  S
C85          H92   1.084       .  S
C85          C86   1.374       .  D
C86          C87   1.526   1_554  S
C86        C2176   1.488       .  S
C87          C91   1.517       .  S
C87          C89   1.516   1_556  S
C87          H93   1.112       .  S
C88          H94   1.082       .  S
C88          C89   1.367       .  D
C89        C2190   1.480       .  S
C90          H95   1.086   1_554  S
C90          C91   1.365   1_554  D
C91        C2305   1.476       .  S
Zn96        O100   1.940   1_554  S
Zn96        O101   1.993       .  S
Zn96        O105   1.954       .  S
Zn96        O112   1.994       .  S
Zn97        O100   1.948       .  S
Zn97        O102   1.985       .  S
Zn97        O104   2.015       .  S
Zn97        O108   2.016       .  S
Zn98        O100   1.990   1_554  S
Zn98        O103   2.090       .  S
Zn98        O106   2.101   1_554  S
Zn98        O109   2.073       .  S
Zn99        O100   1.953       .  S
Zn99        O107   1.952       .  S
Zn99        O110   2.014       .  S
Zn99        O111   2.027       .  S
O101        C113   1.271   1_554  A
O102        C114   1.267       .  A
O103        C115   1.283       .  A
O104        C113   1.273       .  A
O105        C115   1.265       .  A
O106        C114   1.284       .  A
O107        C116   1.265       .  A
O108        C117   1.275       .  A
O109        C116   1.281   1_554  A
O110        C117   1.272       .  A
O111        C118   1.273       .  A
O112        C118   1.269   1_554  A
C113       C2148   1.472       .  S
C114       C2120   1.496       .  S
C115       C2162   1.483       .  S
C116       C2137   1.468       .  S
C117       C2473   1.486       .  S
C118       C2529   1.484       .  S
C119       C2064   1.593       .  S
C119       C2078   1.602       .  S
C119       C2092   1.596       .  S
C119       C2109   1.598       .  S
C120        C121   1.560       .  S
C120        C126   1.549   1_655  S
C120        C124   1.558       .  S
C120       C2095   1.565       .  S
C121        H128   1.082       .  S
C121        C122   1.370       .  D
C122        C123   1.525   1_655  S
C122       C2039   1.492       .  S
C123        C127   1.525       .  S
C123        C125   1.528   1_455  S
C123        H129   1.111       .  S
C124        H130   1.085       .  S
C124        C125   1.375       .  D
C125       C2022   1.490       .  S
C126        H131   1.086       .  S
C126        C127   1.367       .  D
C127       C2050   1.482       .  S
C132        C133   1.556       .  S
C132        C138   1.560       .  S
C132        C136   1.556       .  S
C132       C2081   1.574       .  S
C133        H140   1.085       .  S
C133        C134   1.375       .  D
C134        C135   1.522       .  S
C134       C2123   1.495       .  S
C135        C139   1.521       .  S
C135        C137   1.527   1_556  S
C135        H141   1.109   1_556  S
C136        H142   1.085       .  S
C136        C137   1.375   1_556  D
C137       C2008   1.489       .  S
C138        H143   1.081       .  S
C138        C139   1.369       .  D
C139       C1994   1.489       .  S
C144        C145   1.556   1_545  S
C144        C150   1.563       .  S
C144        C148   1.563       .  S
C144       C1983   1.569       .  S
C145        H152   1.086       .  S
C145        C146   1.366       .  D
C146        C147   1.511       .  S
C146       C1969   1.474       .  S
C147        C151   1.518   1_565  S
C147        C149   1.512   1_565  S
C147        H153   1.111       .  S
C148        H154   1.074       .  S
C148        C149   1.372       .  D
C149       C1938   1.484       .  S
C150        H155   1.085       .  S
C150        C151   1.376       .  D
C151       C1952   1.492       .  S
C156       C1924   1.586       .  S
C156       C1980   1.608       .  S
C156       C2344   1.603       .  S
C156       C2431   1.580       .  S
C157        C158   1.551       .  S
C157        C163   1.546   1_554  S
C157        C161   1.562       .  S
C157       C1910   1.546       .  S
C158        H165   1.085       .  S
C158        C159   1.368       .  D
C159        C160   1.521   1_554  S
C159       C1882   1.476       .  S
C160        C164   1.517       .  S
C160        C162   1.515   1_456  S
C160        H166   1.111       .  S
C161        H167   1.081   1_455  S
C161        C162   1.370   1_455  D
C162       C2151   1.478       .  S
C163        H168   1.085       .  S
C163        C164   1.362       .  D
C164       C1899   1.468       .  S
C169        C170   1.555       .  S
C169        C175   1.559   1_554  S
C169        C173   1.555       .  S
C169       C1854   1.556       .  S
C170        H177   1.085       .  S
C170        C171   1.368       .  D
C171        C172   1.521   1_554  S
C171       C1868   1.480       .  S
C172        C176   1.517       .  S
C172        C174   1.518   1_556  S
C172        H178   1.112       .  S
C173        H179   1.074       .  S
C173        C174   1.363       .  D
C174       C1826   1.472       .  S
C175        H180   1.085       .  S
C175        C176   1.373       .  D
C176       C1840   1.489       .  S
C181        C182   1.551       .  S
C181        C187   1.565       .  S
C181        C185   1.550       .  S
C181       C1812   1.558       .  S
C182        H189   1.085       .  S
C182        C183   1.371       .  D
C183        C184   1.524       .  S
C183       C1770   1.487       .  S
C184        C188   1.523       .  S
C184        C186   1.522       .  S
C184        H190   1.109       .  S
C185        H191   1.085       .  S
C185        C186   1.365       .  D
C186       C1784   1.476       .  S
C187        H192   1.080       .  S
C187        C188   1.372       .  D
C188       C1798   1.496       .  S
C193       C1756   1.588       .  S
C193       C1815   1.590       .  S
C193       C1857   1.598       .  S
C193       C1913   1.575       .  S
C194        C195   1.559       .  S
C194        C200   1.549       .  S
C194        C198   1.546       .  S
C194       C1714   1.543       .  S
C195        H202   1.082       .  S
C195        C196   1.375       .  D
C196        C197   1.524       .  S
C196       C1728   1.491       .  S
C197        C201   1.519       .  S
C197        C199   1.519       .  S
C197        H203   1.109       .  S
C198        H204   1.086       .  S
C198        C199   1.363       .  D
C199       C1700   1.477       .  S
C200        H205   1.085       .  S
C200        C201   1.364       .  D
C201       C1742   1.469       .  S
Zn206       O210   1.934       .  S
Zn206       O211   2.000       .  S
Zn206       O215   1.957       .  S
Zn206       O222   1.998       .  S
Zn207       O210   1.931       .  S
Zn207       O212   1.949       .  S
Zn207       O214   1.991       .  S
Zn207       O218   1.989       .  S
Zn208       O210   1.982       .  S
Zn208       O213   2.059       .  S
Zn208       O216   2.077       .  S
Zn208       O219   2.062       .  S
Zn209       O210   1.942       .  S
Zn209       O217   1.951       .  S
Zn209       O220   2.010       .  S
Zn209       O221   2.018       .  S
O211        C223   1.272       .  A
O212        C224   1.264       .  A
O213        C225   1.279       .  A
O214        C223   1.269       .  A
O215        C225   1.265       .  A
O216        C224   1.281       .  A
O217        C226   1.265       .  A
O218        C227   1.271       .  A
O219        C226   1.279       .  A
O220        C227   1.272       .  A
O221        C228   1.275       .  A
O222        C228   1.270       .  A
C223       C1745   1.478       .  S
C224       C1658   1.478       .  S
C225       C1675   1.467       .  S
C226       C1686   1.473       .  S
C227       C1787   1.475       .  S
C228       C1966   1.488       .  S
Zn229       O233   1.942       .  S
Zn229       O234   1.969       .  S
Zn229       O238   2.009       .  S
Zn229       O245   1.995       .  S
Zn230       O233   1.984       .  S
Zn230       O235   2.087       .  S
Zn230       O237   2.077       .  S
Zn230       O241   2.083       .  S
Zn231       O233   1.952       .  S
Zn231       O236   2.026       .  S
Zn231       O239   1.963       .  S
Zn231       O242   2.018       .  S
Zn232       O233   1.941       .  S
Zn232       O240   2.011       .  S
Zn232       O243   1.966       .  S
Zn232       O244   2.025       .  S
O234        C246   1.267       .  A
O235        C247   1.283       .  A
O236        C248   1.274       .  A
O237        C246   1.281       .  A
O238        C248   1.272       .  A
O239        C247   1.266       .  A
O240        C249   1.274       .  A
O241        C250   1.282       .  A
O242        C249   1.274       .  A
O243        C250   1.267       .  A
O244        C251   1.274       .  A
O245        C251   1.271       .  A
C246       C1843   1.478       .  S
C247       C2358   1.483       .  S
C248       C2053   1.483       .  S
C249       C1630   1.486       .  S
C250       C2221   1.484       .  S
C251       C1644   1.477       .  S
Zn252       O256   1.987       .  S
Zn252       O257   2.073       .  S
Zn252       O261   2.057       .  S
Zn252       O268   2.082       .  S
Zn253       O256   1.934       .  S
Zn253       O258   2.005       .  S
Zn253       O260   1.948       .  S
Zn253       O264   1.982       .  S
Zn254       O256   1.936   1_655  S
Zn254       O259   1.958       .  S
Zn254       O262   1.997       .  S
Zn254       O265   2.008       .  S
Zn255       O256   1.944   1_655  S
Zn255       O263   2.015       .  S
Zn255       O266   2.027       .  S
Zn255       O267   1.956       .  S
O257        C269   1.281       .  A
O258        C270   1.271       .  A
O259        C271   1.265   1_655  A
O260        C269   1.265       .  A
O261        C271   1.278       .  A
O262        C270   1.271   1_655  A
O263        C272   1.273       .  A
O264        C273   1.269       .  A
O265        C272   1.273       .  A
O266        C273   1.275   1_655  A
O267        C274   1.266   1_655  A
O268        C274   1.281       .  A
C269       C1616   1.475       .  S
C270       C2417   1.478       .  S
C271       C1605   1.467       .  S
C272       C2459   1.478       .  S
C273       C1896   1.487       .  S
C274       C2036   1.484       .  S
C275        C276   1.548       .  S
C275        C281   1.565       .  S
C275        C279   1.554       .  S
C275       C1588   1.558       .  S
C276        H283   1.085       .  S
C276        C277   1.364       .  D
C277        C278   1.518       .  S
C277       C1672   1.473       .  S
C278        C282   1.517       .  S
C278        C280   1.524       .  S
C278        H284   1.111       .  S
C279        H285   1.084       .  S
C279        C280   1.377       .  D
C280       C1619   1.491       .  S
C281        H286   1.078       .  S
C281        C282   1.365       .  D
C282       C1647   1.484       .  S
Zn287       O291   1.936       .  S
Zn287       O292   1.962       .  S
Zn287       O296   1.988       .  S
Zn287       O303   1.997       .  S
Zn288       O291   1.978       .  S
Zn288       O293   2.074       .  S
Zn288       O295   2.062       .  S
Zn288       O299   2.063       .  S
Zn289       O291   1.943       .  S
Zn289       O294   2.006       .  S
Zn289       O297   1.947       .  S
Zn289       O300   2.021       .  S
Zn290       O291   1.927       .  S
Zn290       O298   1.994       .  S
Zn290       O301   1.960       .  S
Zn290       O302   1.986       .  S
O292        C304   1.266       .  A
O293        C305   1.281       .  A
O294        C306   1.273       .  A
O295        C304   1.280       .  A
O296        C306   1.271       .  A
O297        C305   1.265       .  A
O298        C307   1.271       .  A
O299        C308   1.279       .  A
O300        C307   1.273       .  A
O301        C308   1.266       .  A
O302        C309   1.270       .  A
O303        C309   1.271       .  A
C304       C1773   1.481       .  S
C305       C1731   1.486       .  S
C306       C1546   1.472       .  S
C307       C1532   1.485       .  S
C308       C1574   1.476       .  S
C309       C1563   1.472       .  S
C310       C1490   1.598       .  S
C310       C1504   1.573       .  S
C310       C1518   1.597       .  S
C310       C1591   1.596       .  S
C311        C312   1.547       .  S
C311        C317   1.557       .  S
C311        C315   1.566       .  S
C311       C1521   1.563       .  S
C312        H319   1.083       .  S
C312        C313   1.351       .  D
C313        C314   1.520       .  S
C313       C1462   1.467       .  S
C314        C318   1.518   1_565  S
C314        C316   1.530       .  S
C314        H320   1.103   1_565  S
C315        H321   1.084       .  S
C315        C316   1.387       .  D
C316       C1476   1.509       .  S
C317        H322   1.085       .  S
C317        C318   1.375   1_565  D
C318       C2319   1.498       .  S
C323        C324   1.558       .  S
C323        C329   1.565       .  S
C323        C327   1.551       .  S
C323       C1507   1.560       .  S
C324        H331   1.071   1_556  S
C324        C325   1.363   1_556  D
C325        C326   1.514   1_554  S
C325       C1560   1.477       .  S
C326        C330   1.521       .  S
C326        C328   1.517       .  S
C326        H332   1.111       .  S
C327        H333   1.086       .  S
C327        C328   1.364       .  D
C328       C2134   1.474       .  S
C329        H334   1.085       .  S
C329        C330   1.380       .  D
C330       C1448   1.500       .  S
C335        C336   1.556       .  S
C335        C341   1.555       .  S
C335        C339   1.555       .  S
C335       C1420   1.557       .  S
C336        H343   1.079       .  S
C336        C337   1.358       .  D
C337        C338   1.522       .  S
C337       C1392   1.476       .  S
C338        C342   1.527       .  S
C338        C340   1.524       .  S
C338        H344   1.111       .  S
C339        H345   1.085       .  S
C339        C340   1.370       .  D
C340       C1406   1.485       .  S
C341        H346   1.085       .  S
C341        C342   1.373       .  D
C342       C1434   1.490       .  S
Zn347       O351   1.936       .  S
Zn347       O352   1.952       .  S
Zn347       O356   2.004       .  S
Zn347       O363   2.007       .  S
Zn348       O351   1.993       .  S
Zn348       O353   2.082       .  S
Zn348       O355   2.089       .  S
Zn348       O359   2.091       .  S
Zn349       O351   1.939       .  S
Zn349       O354   2.018       .  S
Zn349       O357   1.934       .  S
Zn349       O360   2.026       .  S
Zn350       O351   1.928       .  S
Zn350       O358   1.977       .  S
Zn350       O361   1.939       .  S
Zn350       O362   1.972       .  S
O352        C364   1.264       .  A
O353        C365   1.282       .  A
O354        C366   1.275       .  A
O355        C364   1.282       .  A
O356        C366   1.271       .  A
O357        C365   1.264       .  A
O358        C367   1.267       .  A
O359        C368   1.282       .  A
O360        C367   1.273       .  A
O361        C368   1.263       .  A
O362        C369   1.268       .  A
O363        C369   1.273       .  A
C364       C1353   1.473       .  S
C365       C1336   1.478       .  S
C366       C1409   1.484       .  S
C367       C1378   1.477       .  S
C368       C2011   1.482       .  S
C369       C1367   1.465       .  S
C370        C371   1.550       .  S
C370        C376   1.549       .  S
C370        C374   1.561       .  S
C370       C1308   1.550       .  S
C371        H378   1.083       .  S
C371        C372   1.364       .  D
C372        C373   1.522       .  S
C372       C1364   1.470       .  S
C373        C377   1.520       .  S
C373        C375   1.520       .  S
C373        H379   1.111       .  S
C374        H380   1.085       .  S
C374        C375   1.371       .  D
C375       C1294   1.481       .  S
C376        H381   1.086       .  S
C376        C377   1.371       .  D
C377       C1322   1.486       .  S
Zn382       O386   1.979   1_545  S
Zn382       O387   2.086       .  S
Zn382       O391   2.092       .  S
Zn382       O398   2.090       .  S
Zn383       O386   1.939       .  S
Zn383       O388   1.989       .  S
Zn383       O390   1.949       .  S
Zn383       O394   1.963       .  S
Zn384       O386   1.941       .  S
Zn384       O389   1.946       .  S
Zn384       O392   2.012       .  S
Zn384       O395   2.013       .  S
Zn385       O386   1.937   1_545  S
Zn385       O393   2.018       .  S
Zn385       O396   2.034       .  S
Zn385       O397   1.961       .  S
O387        C399   1.284   1_545  A
O388        C400   1.268       .  A
O389        C401   1.264       .  A
O390        C399   1.263       .  A
O391        C401   1.284   1_545  A
O392        C400   1.272       .  A
O393        C402   1.275   1_545  A
O394        C403   1.268       .  A
O395        C402   1.274       .  A
O396        C403   1.276   1_545  A
O397        C404   1.266       .  A
O398        C404   1.282       .  A
C399       C1479   1.486       .  S
C400       C2445   1.473       .  S
C401       C1266   1.485       .  S
C402       C2400   1.482       .  S
C403       C2515   1.477   1_565  S
C404       C1280   1.481       .  S
C405        C406   1.561       .  S
C405        C411   1.546       .  S
C405        C409   1.566       .  S
C405       C2106   1.564       .  S
C406        H413   1.085       .  S
C406        C407   1.379       .  D
C407        C408   1.521       .  S
C407       C2277   1.495       .  S
C408        C412   1.517       .  S
C408        C410   1.515       .  S
C408        H414   1.109       .  S
C409        H415   1.080       .  S
C409        C410   1.370       .  D
C410       C1283   1.487       .  S
C411        H416   1.086       .  S
C411        C412   1.364       .  D
C412       C1252   1.466       .  S
Zn417       O421   1.991       .  S
Zn417       O422   2.073       .  S
Zn417       O426   2.080       .  S
Zn417       O433   2.089       .  S
Zn418       O421   1.939       .  S
Zn418       O423   1.998       .  S
Zn418       O425   1.958       .  S
Zn418       O429   1.998       .  S
Zn419       O421   1.948       .  S
Zn419       O424   1.955       .  S
Zn419       O427   2.039       .  S
Zn419       O430   2.060       .  S
Zn420       O421   1.933       .  S
Zn420       O428   1.989       .  S
Zn420       O431   1.989       .  S
Zn420       O432   1.941       .  S
O422        C434   1.280       .  A
O423        C435   1.274       .  A
O424        C436   1.267       .  A
O425        C434   1.264       .  A
O426        C436   1.282       .  A
O427        C435   1.276       .  A
O428        C437   1.271       .  A
O429        C438   1.271       .  A
O430        C437   1.277       .  A
O431        C438   1.268       .  A
O432        C439   1.264       .  A
O433        C439   1.283       .  A
C434       C1437   1.480       .  S
C435       C1210   1.485       .  S
C436       C1325   1.481       .  S
C437       C1224   1.493       .  S
C438       C1255   1.473       .  S
C439       C1238   1.484       .  S
C440       C1154   1.590       .  S
C440       C1168   1.586       .  S
C440       C1182   1.589       .  S
C440       C1196   1.589       .  S
C441        C442   1.559       .  S
C441        C447   1.552       .  S
C441        C445   1.561       .  S
C441       C1185   1.559       .  S
C442        H449   1.085       .  S
C442        C443   1.369       .  D
C443        C444   1.515       .  S
C443       C1227   1.476   1_565  S
C444        C448   1.518       .  S
C444        C446   1.519       .  S
C444        H450   1.110       .  S
C445        H451   1.085       .  S
C445        C446   1.379       .  D
C446       C1269   1.496       .  S
C447        H452   1.083       .  S
C447        C448   1.361       .  D
C448       C1140   1.470       .  S
C453        C454   1.558   1_655  S
C453        C459   1.552       .  S
C453        C457   1.558       .  S
C453       C1171   1.559       .  S
C454        H461   1.078       .  S
C454        C455   1.370       .  D
C455        C456   1.515       .  S
C455       C1689   1.480       .  S
C456        C460   1.514   1_455  S
C456        C458   1.521   1_455  S
C456        H462   1.112       .  S
C457        H463   1.082       .  S
C457        C458   1.374       .  D
C458       C1129   1.490       .  S
C459        H464   1.086       .  S
C459        C460   1.365       .  D
C460       C1602   1.474       .  S
C465        C466   1.556       .  S
C465        C471   1.558       .  S
C465        C469   1.557       .  S
C465       C1199   1.562       .  S
C466        H473   1.085       .  S
C466        C467   1.367       .  D
C467        C468   1.517       .  S
C467       C1535   1.472       .  S
C468        C472   1.518       .  S
C468        C470   1.518       .  S
C468        H474   1.111       .  S
C469        H475   1.082       .  S
C469        C470   1.370       .  D
C470       C1339   1.482       .  S
C471        H476   1.085       .  S
C471        C472   1.375       .  D
C472       C2165   1.492       .  S
C477        C478   1.557       .  S
C477        C483   1.563       .  S
C477        C481   1.544       .  S
C477       C1112   1.555       .  S
C478        H485   1.084       .  S
C478        C479   1.369       .  D
C479        C480   1.519       .  S
C479       C1633   1.483       .  S
C480        C484   1.525       .  S
C480        C482   1.518       .  S
C480        H486   1.110       .  S
C481        H487   1.086       .  S
C481        C482   1.360       .  D
C482       C1098   1.469       .  S
C483        H488   1.076       .  S
C483        C484   1.379       .  D
C484       C1661   1.501       .  S
Zn489       O493   1.937   1_554  S
Zn489       O494   2.005       .  S
Zn489       O498   1.945       .  S
Zn489       O505   2.022       .  S
Zn490       O493   1.941       .  S
Zn490       O495   1.967       .  S
Zn490       O497   1.986       .  S
Zn490       O501   2.003       .  S
Zn491       O493   1.979   1_554  S
Zn491       O496   2.091       .  S
Zn491       O499   2.093   1_554  S
Zn491       O502   2.071       .  S
Zn492       O493   1.933       .  S
Zn492       O500   1.937       .  S
Zn492       O503   1.989       .  S
Zn492       O504   2.004       .  S
O494        C506   1.273   1_554  A
O495        C507   1.266       .  A
O496        C508   1.284       .  A
O497        C506   1.271       .  A
O498        C508   1.264       .  A
O499        C507   1.284       .  A
O500        C509   1.263       .  A
O501        C510   1.270       .  A
O502        C509   1.280   1_554  A
O503        C510   1.271       .  A
O504        C511   1.271       .  A
O505        C511   1.272   1_554  A
C506       C1829   1.468       .  S
C507       C1451   1.487       .  S
C508       C1084   1.480       .  S
C509       C1997   1.478       .  S
C510       C2235   1.485       .  S
C511       C2179   1.481       .  S
C512        C513   1.568       .  S
C512        C518   1.551       .  S
C512        C516   1.550       .  S
C512       C1070   1.556       .  S
C513        H520   1.080       .  S
C513        C514   1.382       .  D
C514        C515   1.522       .  S
C514       C1087   1.498       .  S
C515        C519   1.521       .  S
C515        C517   1.515       .  S
C515        H521   1.111       .  S
C516        H522   1.086       .  S
C516        C517   1.364       .  D
C517       C1350   1.477       .  S
C518        H523   1.085       .  S
C518        C519   1.364       .  D
C519       C1549   1.478       .  S
C524       C1042   1.595       .  S
C524       C1056   1.591       .  S
C524       C1073   1.598       .  S
C524       C1115   1.578       .  S
C525        C526   1.553       .  S
C525        C531   1.554       .  S
C525        C529   1.567       .  S
C525       C1045   1.565       .  S
C526        H533   1.085       .  S
C526        C527   1.368       .  D
C527        C528   1.527       .  S
C527       C1028   1.483       .  S
C528        C532   1.527       .  S
C528        C530   1.526       .  S
C528        H534   1.112       .  S
C529        H535   1.082       .  S
C529        C530   1.371       .  D
C530       C2263   1.496       .  S
C531        H536   1.085       .  S
C531        C532   1.370       .  D
C532       C1213   1.490       .  S
Zn537       O541   1.982       .  S
Zn537       O542   2.075       .  S
Zn537       O546   2.054       .  S
Zn537       O553   2.039       .  S
Zn538       O541   1.932   1_545  S
Zn538       O543   1.995       .  S
Zn538       O545   1.943       .  S
Zn538       O549   2.009       .  S
Zn539       O541   1.924       .  S
Zn539       O544   1.940       .  S
Zn539       O547   1.972       .  S
Zn539       O550   1.993       .  S
Zn540       O541   1.928   1_545  S
Zn540       O548   1.995       .  S
Zn540       O551   1.994       .  S
Zn540       O552   1.940       .  S
O542        C554   1.280       .  A
O543        C555   1.273   1_545  A
O544        C556   1.263       .  A
O545        C554   1.264   1_545  A
O546        C556   1.277       .  A
O547        C555   1.269       .  A
O548        C557   1.269   1_545  A
O549        C558   1.271       .  A
O550        C557   1.270       .  A
O551        C558   1.271       .  A
O552        C559   1.265   1_545  A
O553        C559   1.278       .  A
C554       C1941   1.477       .  S
C555       C1465   1.473       .  S
C556       C1703   1.469       .  S
C557       C1143   1.470       .  S
C558       C1031   1.472       .  S
C559       C1014   1.465       .  S
C560        C561   1.554       .  S
C560        C566   1.565   1_545  S
C560        C564   1.548       .  S
C560        C986   1.559       .  S
C561        H568   1.085       .  S
C561        C562   1.372   1_545  D
C562        C563   1.525       .  S
C562       C1000   1.488       .  S
C563        C567   1.521       .  S
C563        C565   1.524       .  S
C563        H569   1.110       .  S
C564        H570   1.085       .  S
C564        C565   1.367   1_545  D
C565       C1017   1.481       .  S
C566        H571   1.080       .  S
C566        C567   1.366       .  D
C567       C1577   1.484       .  S
C572        C573   1.562       .  S
C572        C578   1.551       .  S
C572        C576   1.546       .  S
C572       C1759   1.551       .  S
C573        H580   1.081       .  S
C573        C574   1.374       .  D
C574        C575   1.524       .  S
C574        C972   1.490       .  S
C575        C579   1.520       .  S
C575        C577   1.522   1_455  S
C575        H581   1.110   1_455  S
C576        H582   1.085       .  S
C576        C577   1.364   1_455  D
C577       C1381   1.475       .  S
C578        H583   1.086       .  S
C578        C579   1.364       .  D
C579        C961   1.476       .  S
Zn584       O588   1.983       .  S
Zn584       O589   2.080       .  S
Zn584       O593   2.062       .  S
Zn584       O600   2.086       .  S
Zn585       O588   1.932   1_655  S
Zn585       O590   1.999       .  S
Zn585       O592   1.942       .  S
Zn585       O596   1.988       .  S
Zn586       O588   1.931       .  S
Zn586       O591   1.944       .  S
Zn586       O594   1.976       .  S
Zn586       O597   1.984       .  S
Zn587       O588   1.925   1_655  S
Zn587       O595   1.984       .  S
Zn587       O598   1.987       .  S
Zn587       O599   1.946       .  S
O589        C601   1.281       .  A
O590        C602   1.271   1_655  A
O591        C603   1.264       .  A
O592        C601   1.265   1_655  A
O593        C603   1.279       .  A
O594        C602   1.267       .  A
O595        C604   1.269   1_655  A
O596        C605   1.269       .  A
O597        C604   1.268       .  A
O598        C605   1.270       .  A
O599        C606   1.265   1_655  A
O600        C606   1.282       .  A
C601       C1126   1.480       .  S
C602        C958   1.471       .  S
C603       C1101   1.465       .  S
C604        C947   1.468       .  S
C605       C1395   1.465       .  S
C606       C2025   1.479       .  S
C607        C608   1.563       .  S
C607        C613   1.561       .  S
C607        C611   1.540       .  S
C607       C1927   1.551       .  S
C608        H615   1.080       .  S
C608        C609   1.371       .  D
C609        C610   1.513       .  S
C609        C930   1.480       .  S
C610        C614   1.520   1_455  S
C610        C612   1.513       .  S
C610        H616   1.112   1_455  S
C611        H617   1.086       .  S
C611        C612   1.358       .  D
C612        C944   1.459       .  S
C613        H618   1.083       .  S
C613        C614   1.376   1_455  D
C614       C1241   1.489       .  S
C619        C620   1.550       .  S
C619        C625   1.564       .  S
C619        C623   1.560       .  S
C619       C1493   1.563       .  S
C620        H627   1.086       .  S
C620        C621   1.360   1_556  D
C621        C622   1.512   1_554  S
C621        C916   1.466       .  S
C622        C626   1.513   1_565  S
C622        C624   1.518       .  S
C622        H628   1.110   1_566  S
C623        H629   1.085       .  S
C623        C624   1.379       .  D
C624        C902   1.494       .  S
C625        H630   1.071   1_565  S
C625        C626   1.371   1_565  D
C626        C888   1.485       .  S
Zn631       O635   1.937       .  S
Zn631       O636   1.994       .  S
Zn631       O640   1.996       .  S
Zn631       O647   1.928       .  S
Zn632       O635   1.935   1_645  S
Zn632       O637   1.986       .  S
Zn632       O639   2.011       .  S
Zn632       O643   1.956       .  S
Zn633       O635   1.946   1_654  S
Zn633       O638   2.017   1_655  S
Zn633       O641   2.025       .  S
Zn633       O644   1.953       .  S
Zn634       O635   1.994   1_544  S
Zn634       O642   2.103       .  S
Zn634       O645   2.108   1_554  S
Zn634       O646   2.109       .  S
O636        C648   1.268       .  A
O637        C649   1.272   1_545  A
O638        C650   1.274   1_554  A
O639        C648   1.273   1_645  A
O640        C650   1.270       .  A
O641        C649   1.273   1_554  A
O642        C651   1.284   1_545  A
O643        C652   1.264   1_655  A
O644        C651   1.265   1_655  A
O645        C652   1.285       .  A
O646        C653   1.285   1_544  A
O647        C653   1.262       .  A
C648       C2389   1.489   1_565  S
C649       C2501   1.480       .  S
C650       C1885   1.475       .  S
C651        C874   1.493   1_455  S
C652        C863   1.480   1_455  S
C653        C905   1.480       .  S
C654        C655   1.558   1_655  S
C654        C660   1.556       .  S
C654        C658   1.557       .  S
C654       C1157   1.563       .  S
C655        H662   1.086       .  S
C655        C656   1.368       .  D
C656        C657   1.522       .  S
C656        C846   1.483       .  S
C657        C661   1.524   1_455  S
C657        C659   1.518   1_465  S
C657        H663   1.112   1_565  S
C658        H664   1.080   1_565  S
C658        C659   1.366   1_565  D
C659        C835   1.477       .  S
C660        H665   1.082       .  S
C660        C661   1.376       .  D
C661        C877   1.496       .  S
C666        C667   1.554       .  S
C666        C672   1.558       .  S
C666        C670   1.566   1_655  S
C666       C2067   1.570       .  S
C667        H674   1.085       .  S
C667        C668   1.370   1_556  D
C668        C669   1.522   1_654  S
C668        C807   1.483       .  S
C669        C673   1.521   1_455  S
C669        C671   1.521       .  S
C669        H675   1.109       .  S
C670        H676   1.073       .  S
C670        C671   1.373       .  D
C671        C821   1.497       .  S
C672        H677   1.086       .  S
C672        C673   1.369       .  D
C673        C860   1.487       .  S
Zn678       O682   1.934       .  S
Zn678       O683   1.922       .  S
Zn678       O687   1.988       .  S
Zn678       O694   1.993       .  S
Zn679       O682   1.989   1_554  S
Zn679       O684   2.081       .  S
Zn679       O686   2.075       .  S
Zn679       O690   2.071       .  S
Zn680       O682   1.939   1_554  S
Zn680       O685   2.003       .  S
Zn680       O688   1.970       .  S
Zn680       O691   2.003       .  S
Zn681       O682   1.948       .  S
Zn681       O689   2.022       .  S
Zn681       O692   1.965       .  S
Zn681       O693   2.046       .  S
O683        C695   1.262       .  A
O684        C696   1.281       .  A
O685        C697   1.272   1_554  A
O686        C695   1.280   1_554  A
O687        C697   1.267       .  A
O688        C696   1.267       .  A
O689        C698   1.276       .  A
O690        C699   1.281   1_554  A
O691        C698   1.273   1_554  A
O692        C699   1.267       .  A
O693        C700   1.277       .  A
O694        C700   1.270       .  A
C695        C891   1.474       .  S
C696        C790   1.480       .  S
C697       C2193   1.472   1_556  S
C698       C1871   1.480   1_556  S
C699        C818   1.478       .  S
C700       C2333   1.486       .  S
Zn701       O705   1.944   1_545  S
Zn701       O706   2.015       .  S
Zn701       O710   1.950       .  S
Zn701       O717   2.017       .  S
Zn702       O705   1.944   1_545  S
Zn702       O707   1.964       .  S
Zn702       O709   1.994       .  S
Zn702       O713   2.000       .  S
Zn703       O705   1.988       .  S
Zn703       O708   2.088       .  S
Zn703       O711   2.072       .  S
Zn703       O714   2.088       .  S
Zn704       O705   1.937       .  S
Zn704       O712   1.952       .  S
Zn704       O715   2.002       .  S
Zn704       O716   2.005       .  S
O706        C718   1.274       .  A
O707        C719   1.266   1_545  A
O708        C720   1.283       .  A
O709        C718   1.270       .  A
O710        C720   1.265   1_545  A
O711        C719   1.280       .  A
O712        C721   1.265       .  A
O713        C722   1.272   1_545  A
O714        C721   1.282       .  A
O715        C722   1.270       .  A
O716        C723   1.273       .  A
O717        C723   1.272   1_545  A
C718        C776   1.473       .  S
C719       C1003   1.477       .  S
C720       C1955   1.486   1_565  S
C721       C1801   1.486       .  S
C722        C919   1.488       .  S
C723        C849   1.480       .  S
Zn724       O728   1.985   1_655  S
Zn724       O729   2.072       .  S
Zn724       O733   2.077       .  S
Zn724       O740   2.067       .  S
Zn725       O728   1.936   1_655  S
Zn725       O730   1.980       .  S
Zn725       O732   1.970       .  S
Zn725       O736   2.025       .  S
Zn726       O728   1.952       .  S
Zn726       O731   1.952       .  S
Zn726       O734   2.020       .  S
Zn726       O737   2.039       .  S
Zn727       O728   1.927       .  S
Zn727       O735   1.977       .  S
Zn727       O738   1.994       .  S
Zn727       O739   1.939       .  S
O729        C741   1.280       .  A
O730        C742   1.272   1_655  A
O731        C743   1.266       .  A
O732        C741   1.267       .  A
O733        C743   1.282   1_655  A
O734        C742   1.274       .  A
O735        C744   1.270       .  A
O736        C745   1.272   1_655  A
O737        C744   1.274       .  A
O738        C745   1.271       .  A
O739        C746   1.264       .  A
O740        C746   1.279   1_655  A
C741       C1297   1.478       .  S
C742        C804   1.474       .  S
C743        C975   1.480       .  S
C744        C762   1.483       .  S
C745        C832   1.484       .  S
C746        C933   1.469       .  S
C747        C748   1.562       .  S
C747        C753   1.553       .  S
C747        C751   1.554       .  S
C747       C1059   1.559       .  S
C748        H755   1.085       .  S
C748        C749   1.375       .  D
C749        C750   1.523       .  S
C749        C793   1.490       .  S
C750        C754   1.522       .  S
C750        C752   1.522       .  S
C750        H756   1.112       .  S
C751        H757   1.086       .  S
C751        C752   1.369       .  D
C752        C765   1.486       .  S
C753        H758   1.081       .  S
C753        C754   1.364       .  D
C754        C779   1.480       .  S
C759        C989   1.584       .  S
C759       C1311   1.598       .  S
C759       C2207   1.594       .  S
C759       C2543   1.582       .  S
C760       C1423   1.584       .  S
C760       C1717   1.582       .  S
C760       C2249   1.584       .  S
C760       C2487   1.590       .  S
C761        C762   1.400       .  A
C761        C766   1.394       .  A
C761        H768   1.084       .  S
C762        C763   1.416       .  A
C763        C764   1.410       .  A
C763        N770   1.429       .  S
C764        C765   1.404       .  A
C764        H769   1.084       .  S
C765        C766   1.409       .  A
C766        N767   1.428       .  S
N767        O771   1.261       .  A
N767        O772   1.262       .  A
N770        O774   1.262       .  A
N770        O773   1.262       .  A
C775        C776   1.405       .  A
C775        C780   1.401       .  A
C775        H782   1.084       .  S
C776        C777   1.407       .  A
C777        C778   1.398       .  A
C777        N784   1.429       .  S
C778        C779   1.406       .  A
C778        H783   1.084       .  S
C779        C780   1.410       .  A
C780        N781   1.432       .  S
N781        O785   1.262       .  A
N781        O786   1.261       .  A
N784        O788   1.262       .  A
N784        O787   1.262       .  A
C789        C790   1.396       .  A
C789        C794   1.403       .  A
C789        H796   1.084       .  S
C790        C791   1.418       .  A
C791        C792   1.408       .  A
C791        N798   1.435       .  S
C792        C793   1.401       .  A
C792        H797   1.084       .  S
C793        C794   1.416       .  A
C794        N795   1.430       .  S
N795        O799   1.263       .  A
N795        O800   1.262       .  A
N798        O802   1.263       .  A
N798        O801   1.262       .  A
C803        C804   1.408       .  A
C803        C808   1.405   1_455  A
C803        H810   1.084       .  S
C804        C805   1.408   1_455  A
C805        C806   1.391       .  A
C805        N812   1.434       .  S
C806        C807   1.402       .  A
C806        H811   1.074       .  S
C807        C808   1.409       .  A
C808        N809   1.428   1_655  S
N809        O813   1.262   1_455  A
N809        O814   1.262       .  A
N812        O816   1.262   1_655  A
N812        O815   1.262       .  A
C817        C818   1.396       .  A
C817        C822   1.401       .  A
C817        H824   1.084       .  S
C818        C819   1.417       .  A
C819        C820   1.405       .  A
C819        N826   1.434       .  S
C820        C821   1.404       .  A
C820        H825   1.083       .  S
C821        C822   1.417       .  A
C822        N823   1.427       .  S
N823        O827   1.261       .  A
N823        O828   1.263       .  A
N826        O830   1.262   1_556  A
N826        O829   1.262       .  A
C831        C832   1.404       .  A
C831        C836   1.400       .  A
C831        H838   1.084       .  S
C832        C833   1.415   1_455  A
C833        C834   1.402       .  A
C833        N840   1.429       .  S
C834        C835   1.401       .  A
C834        H839   1.084       .  S
C835        C836   1.409   1_655  A
C836        N837   1.432       .  S
N837        O841   1.263       .  A
N837        O842   1.262       .  A
N840        O844   1.262       .  A
N840        O843   1.262       .  A
C845        C846   1.401       .  A
C845        C850   1.406       .  A
C845        H852   1.083       .  S
C846        C847   1.411       .  A
C847        C848   1.397       .  A
C847        N854   1.430       .  S
C848        C849   1.399       .  A
C848        H853   1.084       .  S
C849        C850   1.416       .  A
C850        N851   1.430       .  S
N851        O855   1.262   1_565  A
N851        O856   1.262       .  A
N854        O858   1.261       .  A
N854        O857   1.262       .  A
C859        C860   1.399       .  A
C859        C864   1.404   1_655  A
C859        H866   1.084   1_655  S
C860        C861   1.417       .  A
C861        C862   1.413       .  A
C861        N868   1.444   1_556  S
C862        C863   1.403       .  A
C862        H867   1.083   1_556  S
C863        C864   1.412   1_655  A
C864        N865   1.431       .  S
N865        O869   1.262       .  A
N865        O870   1.262       .  A
N868        O872   1.263       .  A
N868        O871   1.263   1_554  A
C873        C874   1.413       .  A
C873        C878   1.405       .  A
C873        H880   1.084       .  S
C874        C875   1.407   1_565  A
C875        C876   1.404       .  A
C875        N882   1.429   1_655  S
C876        C877   1.412   1_545  A
C876        H881   1.083       .  S
C877        C878   1.410       .  A
C878        N879   1.432       .  S
N879        O883   1.262       .  A
N879        O884   1.262       .  A
N882        O886   1.262       .  A
N882        O885   1.262   1_455  A
C887        C888   1.412       .  A
C887        C892   1.399       .  A
C887        H894   1.083       .  S
C888        C889   1.405       .  A
C889        C890   1.397       .  A
C889        N896   1.429       .  S
C890        C891   1.410       .  A
C890        H895   1.084       .  S
C891        C892   1.404       .  A
C892        N893   1.431       .  S
N893        O897   1.262       .  A
N893        O898   1.262   1_556  A
N896        O900   1.261       .  A
N896        O899   1.262       .  A
C901        C902   1.413   1_554  A
C901        C906   1.405       .  A
C901        H908   1.082       .  S
C902        C903   1.409       .  A
C903        C904   1.402       .  A
C903        N910   1.431       .  S
C904        C905   1.410       .  A
C904        H909   1.084       .  S
C905        C906   1.407   1_556  A
C906        N907   1.433       .  S
N907        O911   1.262       .  A
N907        O912   1.262       .  A
N910        O914   1.262   1_565  A
N910        O913   1.262       .  A
C915        C916   1.399       .  A
C915        C920   1.401       .  A
C915        H922   1.085       .  S
C916        C917   1.407       .  A
C917        C918   1.400       .  A
C917        N924   1.439   1_565  S
C918        C919   1.409       .  A
C918        H923   1.083   1_565  S
C919        C920   1.420       .  A
C920        N921   1.436       .  S
N921        O925   1.262       .  A
N921        O926   1.262       .  A
N924        O928   1.262   1_545  A
N924        O927   1.263       .  A
C929        C930   1.399       .  A
C929        C934   1.402       .  A
C929        H936   1.084       .  S
C930        C931   1.416   1_455  A
C931        C932   1.400       .  A
C931        N938   1.431       .  S
C932        C933   1.395   1_655  A
C932        H937   1.084       .  S
C933        C934   1.415       .  A
C934        N935   1.435       .  S
N935        O939   1.263       .  A
N935        O940   1.262       .  A
N938        O942   1.261       .  A
N938        O941   1.262       .  A
C943        C944   1.400       .  A
C943        C948   1.394       .  A
C943        H950   1.085       .  S
C944        C945   1.404       .  A
C945        C946   1.395       .  A
C945        N952   1.432       .  S
C946        C947   1.406       .  A
C946        H951   1.084       .  S
C947        C948   1.409       .  A
C948        N949   1.429       .  S
N949        O953   1.262       .  A
N949        O954   1.262       .  A
N952        O956   1.262       .  A
N952        O955   1.262       .  A
C957        C958   1.398   1_655  A
C957        C962   1.394       .  A
C957        H964   1.084       .  S
C958        C959   1.414       .  A
C959        C960   1.398       .  A
C959        N966   1.430       .  S
C960        C961   1.400       .  A
C960        H965   1.084       .  S
C961        C962   1.411   1_455  A
C962        N963   1.427       .  S
N963        O967   1.262       .  A
N963        O968   1.261       .  A
N966        O970   1.261       .  A
N966        O969   1.262       .  A
C971        C972   1.400       .  A
C971        C976   1.404       .  A
C971        H978   1.084       .  S
C972        C973   1.416       .  A
C973        C974   1.401       .  A
C973        N980   1.427       .  S
C974        C975   1.397       .  A
C974        H979   1.084       .  S
C975        C976   1.419       .  A
C976        N977   1.435       .  S
N977        O981   1.263   1_455  A
N977        O982   1.262       .  A
N980        O984   1.261       .  A
N980        O983   1.262   1_455  A
C985        C986   1.407       .  A
C985        C990   1.411       .  A
C985        H992   1.074   1_545  S
C986        C987   1.422       .  A
C987        C988   1.411       .  A
C987        N994   1.434       .  S
C988        C989   1.417       .  A
C988        H993   1.083       .  S
C989        C990   1.442       .  A
C990        N991   1.440       .  S
N991        O995   1.263       .  A
N991        O996   1.260       .  A
N994        O998   1.261       .  A
N994        O997   1.262       .  A
C999       C1000   1.401   1_545  A
C999       C1004   1.406       .  A
C999       H1006   1.084       .  S
C1000      C1001   1.415       .  A
C1001      C1002   1.402       .  A
C1001      N1008   1.432       .  S
C1002      C1003   1.398       .  A
C1002      H1007   1.084       .  S
C1003      C1004   1.417   1_565  A
C1004      N1005   1.435       .  S
N1005      O1009   1.263       .  A
N1005      O1010   1.262       .  A
N1008      O1012   1.262       .  A
N1008      O1011   1.263       .  A
C1013      C1014   1.394       .  A
C1013      C1018   1.394       .  A
C1013      H1020   1.084       .  S
C1014      C1015   1.415       .  A
C1015      C1016   1.397       .  A
C1015      N1022   1.432       .  S
C1016      C1017   1.400       .  A
C1016      H1021   1.084   1_565  S
C1017      C1018   1.414       .  A
C1018      N1019   1.428       .  S
N1019      O1023   1.262       .  A
N1019      O1024   1.261   1_565  A
N1022      O1026   1.262   1_565  A
N1022      O1025   1.262       .  A
C1027      C1028   1.402       .  A
C1027      C1032   1.405       .  A
C1027      H1034   1.084       .  S
C1028      C1029   1.411       .  A
C1029      C1030   1.394       .  A
C1029      N1036   1.428       .  S
C1030      C1031   1.394       .  A
C1030      H1035   1.084       .  S
C1031      C1032   1.413       .  A
C1032      N1033   1.429       .  S
N1033      O1037   1.262       .  A
N1033      O1038   1.262       .  A
N1036      O1040   1.261       .  A
N1036      O1039   1.263       .  A
C1041      C1042   1.418       .  A
C1041      C1046   1.414       .  A
C1041      H1048   1.083       .  S
C1042      C1043   1.444       .  A
C1043      C1044   1.413       .  A
C1043      N1050   1.437       .  S
C1044      C1045   1.407       .  A
C1044      H1049   1.077       .  S
C1045      C1046   1.422       .  A
C1046      N1047   1.433       .  S
N1047      O1051   1.262       .  A
N1047      O1052   1.262       .  A
N1050      O1054   1.260       .  A
N1050      O1053   1.263       .  A
C1055      C1056   1.415       .  A
C1055      C1060   1.413       .  A
C1055      H1062   1.079       .  S
C1056      C1057   1.433       .  A
C1057      C1058   1.411       .  A
C1057      N1064   1.431       .  S
C1058      C1059   1.405       .  A
C1058      H1063   1.083       .  S
C1059      C1060   1.426       .  A
C1060      N1061   1.434       .  S
N1061      O1065   1.263       .  A
N1061      O1066   1.263       .  A
N1064      O1068   1.262       .  A
N1064      O1067   1.262       .  A
C1069      C1070   1.407       .  A
C1069      C1074   1.408       .  A
C1069      H1076   1.084       .  S
C1070      C1071   1.417       .  A
C1071      C1072   1.415       .  A
C1071      N1078   1.430       .  S
C1072      C1073   1.425       .  A
C1072      H1077   1.079       .  S
C1073      C1074   1.428       .  A
C1074      N1075   1.427       .  S
N1075      O1079   1.262       .  A
N1075      O1080   1.263       .  A
N1078      O1082   1.263       .  A
N1078      O1081   1.262       .  A
C1083      C1084   1.410       .  A
C1083      C1088   1.406       .  A
C1083      H1090   1.084       .  S
C1084      C1085   1.405       .  A
C1085      C1086   1.400       .  A
C1085      N1092   1.434       .  S
C1086      C1087   1.412       .  A
C1086      H1091   1.079       .  S
C1087      C1088   1.412       .  A
C1088      N1089   1.434       .  S
N1089      O1093   1.262       .  A
N1089      O1094   1.262       .  A
N1092      O1096   1.262       .  A
N1092      O1095   1.262       .  A
C1097      C1098   1.401       .  A
C1097      C1102   1.401       .  A
C1097      H1104   1.083       .  S
C1098      C1099   1.409       .  A
C1099      C1100   1.402       .  A
C1099      N1106   1.438       .  S
C1100      C1101   1.404       .  A
C1100      H1105   1.084       .  S
C1101      C1102   1.410       .  A
C1102      N1103   1.436       .  S
N1103      O1107   1.262       .  A
N1103      O1108   1.262       .  A
N1106      O1110   1.262       .  A
N1106      O1109   1.262       .  A
C1111      C1112   1.407       .  A
C1111      C1116   1.405       .  A
C1111      H1118   1.084       .  S
C1112      C1113   1.421       .  A
C1113      C1114   1.416       .  A
C1113      N1120   1.432       .  S
C1114      C1115   1.417       .  A
C1114      H1119   1.078       .  S
C1115      C1116   1.431       .  A
C1116      N1117   1.433       .  S
N1117      O1121   1.262       .  A
N1117      O1122   1.261       .  A
N1120      O1124   1.263       .  A
N1120      O1123   1.263       .  A
C1125      C1126   1.410   1_655  A
C1125      C1130   1.402       .  A
C1125      H1132   1.084       .  S
C1126      C1127   1.405       .  A
C1127      C1128   1.400       .  A
C1127      N1134   1.429       .  S
C1128      C1129   1.412   1_455  A
C1128      H1133   1.084       .  S
C1129      C1130   1.409       .  A
C1130      N1131   1.431       .  S
N1131      O1135   1.262       .  A
N1131      O1136   1.262       .  A
N1134      O1138   1.262       .  A
N1134      O1137   1.262       .  A
C1139      C1140   1.404       .  A
C1139      C1144   1.397   1_565  A
C1139      H1146   1.083   1_565  S
C1140      C1141   1.404       .  A
C1141      C1142   1.398       .  A
C1141      N1148   1.431       .  S
C1142      C1143   1.407       .  A
C1142      H1147   1.084       .  S
C1143      C1144   1.409   1_565  A
C1144      N1145   1.431       .  S
N1145      O1149   1.262       .  A
N1145      O1150   1.262       .  A
N1148      O1152   1.261       .  A
N1148      O1151   1.261       .  A
C1153      C1154   1.416       .  A
C1153      C1158   1.415       .  A
C1153      H1160   1.080       .  S
C1154      C1155   1.431       .  A
C1155      C1156   1.411       .  A
C1155      N1162   1.430       .  S
C1156      C1157   1.408       .  A
C1156      H1161   1.084       .  S
C1157      C1158   1.424       .  A
C1158      N1159   1.432       .  S
N1159      O1163   1.263       .  A
N1159      O1164   1.263       .  A
N1162      O1166   1.262       .  A
N1162      O1165   1.262       .  A
C1167      C1168   1.416       .  A
C1167      C1172   1.411       .  A
C1167      H1174   1.080       .  S
C1168      C1169   1.431       .  A
C1169      C1170   1.409       .  A
C1169      N1176   1.431       .  S
C1170      C1171   1.407       .  A
C1170      H1175   1.084       .  S
C1171      C1172   1.423       .  A
C1172      N1173   1.429   1_655  S
N1173      O1177   1.263       .  A
N1173      O1178   1.263       .  A
N1176      O1180   1.262       .  A
N1176      O1179   1.262       .  A
C1181      C1182   1.416       .  A
C1181      C1186   1.414       .  A
C1181      H1188   1.080       .  S
C1182      C1183   1.434       .  A
C1183      C1184   1.411       .  A
C1183      N1190   1.431       .  S
C1184      C1185   1.406       .  A
C1184      H1189   1.083       .  S
C1185      C1186   1.423       .  A
C1186      N1187   1.437       .  S
N1187      O1191   1.263       .  A
N1187      O1192   1.262       .  A
N1190      O1194   1.262       .  A
N1190      O1193   1.262       .  A
C1195      C1196   1.417       .  A
C1195      C1200   1.414       .  A
C1195      H1202   1.080       .  S
C1196      C1197   1.431       .  A
C1197      C1198   1.413       .  A
C1197      N1204   1.431       .  S
C1198      C1199   1.408       .  A
C1198      H1203   1.083       .  S
C1199      C1200   1.423       .  A
C1200      N1201   1.434       .  S
N1201      O1205   1.262       .  A
N1201      O1206   1.263       .  A
N1204      O1208   1.262       .  A
N1204      O1207   1.262       .  A
C1209      C1210   1.400       .  A
C1209      C1214   1.399       .  A
C1209      H1216   1.084       .  S
C1210      C1211   1.417       .  A
C1211      C1212   1.408       .  A
C1211      N1218   1.429       .  S
C1212      C1213   1.402       .  A
C1212      H1217   1.083       .  S
C1213      C1214   1.412       .  A
C1214      N1215   1.432       .  S
N1215      O1219   1.263       .  A
N1215      O1220   1.262       .  A
N1218      O1222   1.262       .  A
N1218      O1221   1.262       .  A
C1223      C1224   1.408       .  A
C1223      C1228   1.404       .  A
C1223      H1230   1.084       .  S
C1224      C1225   1.419       .  A
C1225      C1226   1.405       .  A
C1225      N1232   1.430       .  S
C1226      C1227   1.397       .  A
C1226      H1231   1.084       .  S
C1227      C1228   1.411       .  A
C1228      N1229   1.438       .  S
N1229      O1233   1.262       .  A
N1229      O1234   1.263       .  A
N1232      O1236   1.262       .  A
N1232      O1235   1.262       .  A
C1237      C1238   1.412       .  A
C1237      C1242   1.402       .  A
C1237      H1244   1.084       .  S
C1238      C1239   1.406       .  A
C1239      C1240   1.402       .  A
C1239      N1246   1.429       .  S
C1240      C1241   1.411       .  A
C1240      H1245   1.084       .  S
C1241      C1242   1.407       .  A
C1242      N1243   1.431       .  S
N1243      O1247   1.262       .  A
N1243      O1248   1.262       .  A
N1246      O1250   1.262       .  A
N1246      O1249   1.262       .  A
C1251      C1252   1.404       .  A
C1251      C1256   1.395       .  A
C1251      H1258   1.084       .  S
C1252      C1253   1.409       .  A
C1253      C1254   1.401       .  A
C1253      N1260   1.439       .  S
C1254      C1255   1.406       .  A
C1254      H1259   1.082       .  S
C1255      C1256   1.407       .  A
C1256      N1257   1.430       .  S
N1257      O1261   1.262       .  A
N1257      O1262   1.262       .  A
N1260      O1264   1.262       .  A
N1260      O1263   1.262       .  A
C1265      C1266   1.395       .  A
C1265      C1270   1.400       .  A
C1265      H1272   1.084       .  S
C1266      C1267   1.422       .  A
C1267      C1268   1.408       .  A
C1267      N1274   1.435       .  S
C1268      C1269   1.401       .  A
C1268      H1273   1.084       .  S
C1269      C1270   1.420       .  A
C1270      N1271   1.428       .  S
N1271      O1275   1.260       .  A
N1271      O1276   1.262       .  A
N1274      O1278   1.263       .  A
N1274      O1277   1.262       .  A
C1279      C1280   1.399       .  A
C1279      C1284   1.406       .  A
C1279      H1286   1.084       .  S
C1280      C1281   1.417       .  A
C1281      C1282   1.405       .  A
C1281      N1288   1.434       .  S
C1282      C1283   1.401       .  A
C1282      H1287   1.084       .  S
C1283      C1284   1.416       .  A
C1284      N1285   1.433       .  S
N1285      O1289   1.262       .  A
N1285      O1290   1.262       .  A
N1288      O1292   1.262       .  A
N1288      O1291   1.263       .  A
C1293      C1294   1.400       .  A
C1293      C1298   1.403       .  A
C1293      H1300   1.084       .  S
C1294      C1295   1.415       .  A
C1295      C1296   1.404       .  A
C1295      N1302   1.435       .  S
C1296      C1297   1.399       .  A
C1296      H1301   1.084       .  S
C1297      C1298   1.414       .  A
C1298      N1299   1.432       .  S
N1299      O1303   1.262       .  A
N1299      O1304   1.262       .  A
N1302      O1306   1.263       .  A
N1302      O1305   1.262       .  A
C1307      C1308   1.404       .  A
C1307      C1312   1.409       .  A
C1307      H1314   1.083       .  S
C1308      C1309   1.421       .  A
C1309      C1310   1.410       .  A
C1309      N1316   1.436       .  S
C1310      C1311   1.420       .  A
C1310      H1315   1.080       .  S
C1311      C1312   1.431       .  A
C1312      N1313   1.427       .  S
N1313      O1317   1.263       .  A
N1313      O1318   1.262       .  A
N1316      O1320   1.262       .  A
N1316      O1319   1.263       .  A
C1321      C1322   1.395       .  A
C1321      C1326   1.398       .  A
C1321      H1328   1.084       .  S
C1322      C1323   1.418       .  A
C1323      C1324   1.405       .  A
C1323      N1330   1.430       .  S
C1324      C1325   1.399       .  A
C1324      H1329   1.084       .  S
C1325      C1326   1.416       .  A
C1326      N1327   1.430       .  S
N1327      O1331   1.262       .  A
N1327      O1332   1.262       .  A
N1330      O1334   1.262       .  A
N1330      O1333   1.261       .  A
C1335      C1336   1.410       .  A
C1335      C1340   1.395       .  A
C1335      H1342   1.084       .  S
C1336      C1337   1.406       .  A
C1337      C1338   1.402       .  A
C1337      N1344   1.432       .  S
C1338      C1339   1.411       .  A
C1338      H1343   1.083       .  S
C1339      C1340   1.406       .  A
C1340      N1341   1.430       .  S
N1341      O1345   1.261       .  A
N1341      O1346   1.261       .  A
N1344      O1348   1.262       .  A
N1344      O1347   1.262       .  A
C1349      C1350   1.405       .  A
C1349      C1354   1.402       .  A
C1349      H1356   1.083       .  S
C1350      C1351   1.406       .  A
C1351      C1352   1.404       .  A
C1351      N1358   1.432       .  S
C1352      C1353   1.406       .  A
C1352      H1357   1.083       .  S
C1353      C1354   1.406       .  A
C1354      N1355   1.429       .  S
N1355      O1359   1.262       .  A
N1355      O1360   1.261       .  A
N1358      O1362   1.261       .  A
N1358      O1361   1.262       .  A
C1363      C1364   1.404       .  A
C1363      C1368   1.397       .  A
C1363      H1370   1.084       .  S
C1364      C1365   1.406       .  A
C1365      C1366   1.397       .  A
C1365      N1372   1.432       .  S
C1366      C1367   1.404       .  A
C1366      H1371   1.084       .  S
C1367      C1368   1.409       .  A
C1368      N1369   1.433       .  S
N1369      O1373   1.262       .  A
N1369      O1374   1.262       .  A
N1372      O1376   1.262       .  A
N1372      O1375   1.262       .  A
C1377      C1378   1.407       .  A
C1377      C1382   1.407       .  A
C1377      H1384   1.084       .  S
C1378      C1379   1.411       .  A
C1379      C1380   1.396       .  A
C1379      N1386   1.433       .  S
C1380      C1381   1.403       .  A
C1380      H1385   1.085       .  S
C1381      C1382   1.411       .  A
C1382      N1383   1.439       .  S
N1383      O1387   1.262       .  A
N1383      O1388   1.262       .  A
N1386      O1390   1.262       .  A
N1386      O1389   1.262       .  A
C1391      C1392   1.401       .  A
C1391      C1396   1.397       .  A
C1391      H1398   1.084       .  S
C1392      C1393   1.409       .  A
C1393      C1394   1.395       .  A
C1393      N1400   1.430       .  S
C1394      C1395   1.398       .  A
C1394      H1399   1.084       .  S
C1395      C1396   1.412       .  A
C1396      N1397   1.430       .  S
N1397      O1401   1.262       .  A
N1397      O1402   1.262       .  A
N1400      O1404   1.261       .  A
N1400      O1403   1.262       .  A
C1405      C1406   1.399       .  A
C1405      C1410   1.405       .  A
C1405      H1412   1.084       .  S
C1406      C1407   1.413       .  A
C1407      C1408   1.401       .  A
C1407      N1414   1.432       .  S
C1408      C1409   1.400       .  A
C1408      H1413   1.084       .  S
C1409      C1410   1.419       .  A
C1410      N1411   1.431       .  S
N1411      O1415   1.262       .  A
N1411      O1416   1.262       .  A
N1414      O1418   1.262       .  A
N1414      O1417   1.263       .  A
C1419      C1420   1.412       .  A
C1419      C1424   1.407       .  A
C1419      H1426   1.074       .  S
C1420      C1421   1.413       .  A
C1421      C1422   1.409       .  A
C1421      N1428   1.431       .  S
C1422      C1423   1.419       .  A
C1422      H1427   1.077       .  S
C1423      C1424   1.433       .  A
C1424      N1425   1.435       .  S
N1425      O1429   1.261       .  A
N1425      O1430   1.263       .  A
N1428      O1432   1.262       .  A
N1428      O1431   1.262       .  A
C1433      C1434   1.400       .  A
C1433      C1438   1.405       .  A
C1433      H1440   1.084       .  S
C1434      C1435   1.415       .  A
C1435      C1436   1.401       .  A
C1435      N1442   1.430       .  S
C1436      C1437   1.397       .  A
C1436      H1441   1.084       .  S
C1437      C1438   1.419       .  A
C1438      N1439   1.434       .  S
N1439      O1443   1.262       .  A
N1439      O1444   1.262       .  A
N1442      O1446   1.261       .  A
N1442      O1445   1.263       .  A
C1447      C1448   1.411       .  A
C1447      C1452   1.399       .  A
C1447      H1454   1.078       .  S
C1448      C1449   1.413       .  A
C1449      C1450   1.409       .  A
C1449      N1456   1.431       .  S
C1450      C1451   1.411       .  A
C1450      H1455   1.084       .  S
C1451      C1452   1.404       .  A
C1452      N1453   1.429       .  S
N1453      O1457   1.262       .  A
N1453      O1458   1.262       .  A
N1456      O1460   1.262       .  A
N1456      O1459   1.262       .  A
C1461      C1462   1.397       .  A
C1461      C1466   1.399       .  A
C1461      H1468   1.083       .  S
C1462      C1463   1.405       .  A
C1463      C1464   1.397       .  A
C1463      N1470   1.437       .  S
C1464      C1465   1.407       .  A
C1464      H1469   1.083       .  S
C1465      C1466   1.416       .  A
C1466      N1467   1.437       .  S
N1467      O1471   1.262       .  A
N1467      O1472   1.263       .  A
N1470      O1474   1.261       .  A
N1470      O1473   1.262       .  A
C1475      C1476   1.415       .  A
C1475      C1480   1.396       .  A
C1475      H1482   1.073       .  S
C1476      C1477   1.413       .  A
C1477      C1478   1.411       .  A
C1477      N1484   1.432       .  S
C1478      C1479   1.414       .  A
C1478      H1483   1.084       .  S
C1479      C1480   1.401       .  A
C1480      N1481   1.433       .  S
N1481      O1485   1.263       .  A
N1481      O1486   1.262   1_565  A
N1484      O1488   1.262       .  A
N1484      O1487   1.262       .  A
C1489      C1490   1.421       .  A
C1489      C1494   1.411       .  A
C1489      H1496   1.078       .  S
C1490      C1491   1.431       .  A
C1491      C1492   1.410       .  A
C1491      N1498   1.427       .  S
C1492      C1493   1.407       .  A
C1492      H1497   1.084       .  S
C1493      C1494   1.422       .  A
C1494      N1495   1.426       .  S
N1495      O1499   1.263       .  A
N1495      O1500   1.262       .  A
N1498      O1502   1.262       .  A
N1498      O1501   1.263       .  A
C1503      C1504   1.410       .  A
C1503      C1508   1.408       .  A
C1503      H1510   1.078       .  S
C1504      C1505   1.432       .  A
C1505      C1506   1.410       .  A
C1505      N1512   1.434       .  S
C1506      C1507   1.409       .  A
C1506      H1511   1.084       .  S
C1507      C1508   1.428       .  A
C1508      N1509   1.428       .  S
N1509      O1513   1.262       .  A
N1509      O1514   1.263       .  A
N1512      O1516   1.261       .  A
N1512      O1515   1.262       .  A
C1517      C1518   1.411       .  A
C1517      C1522   1.406       .  A
C1517      H1524   1.071       .  S
C1518      C1519   1.440       .  A
C1519      C1520   1.418       .  A
C1519      N1526   1.431       .  S
C1520      C1521   1.406       .  A
C1520      H1525   1.083       .  S
C1521      C1522   1.425       .  A
C1522      N1523   1.434       .  S
N1523      O1527   1.263       .  A
N1523      O1528   1.262       .  A
N1526      O1530   1.261       .  A
N1526      O1529   1.262       .  A
C1531      C1532   1.405       .  A
C1531      C1536   1.400       .  A
C1531      H1538   1.083       .  S
C1532      C1533   1.416       .  A
C1533      C1534   1.402       .  A
C1533      N1540   1.431       .  S
C1534      C1535   1.401       .  A
C1534      H1539   1.084       .  S
C1535      C1536   1.410       .  A
C1536      N1537   1.437       .  S
N1537      O1541   1.263       .  A
N1537      O1542   1.262       .  A
N1540      O1544   1.262       .  A
N1540      O1543   1.262       .  A
C1545      C1546   1.407       .  A
C1545      C1550   1.406       .  A
C1545      H1552   1.084       .  S
C1546      C1547   1.406       .  A
C1547      C1548   1.393       .  A
C1547      N1554   1.432       .  S
C1548      C1549   1.405       .  A
C1548      H1553   1.081       .  S
C1549      C1550   1.411       .  A
C1550      N1551   1.439       .  S
N1551      O1555   1.262       .  A
N1551      O1556   1.262       .  A
N1554      O1558   1.262       .  A
N1554      O1557   1.262       .  A
C1559      C1560   1.404       .  A
C1559      C1564   1.395       .  A
C1559      H1566   1.082       .  S
C1560      C1561   1.410       .  A
C1561      C1562   1.401       .  A
C1561      N1568   1.431       .  S
C1562      C1563   1.406       .  A
C1562      H1567   1.084       .  S
C1563      C1564   1.409       .  A
C1564      N1565   1.435       .  S
N1565      O1569   1.263       .  A
N1565      O1570   1.262       .  A
N1568      O1572   1.262       .  A
N1568      O1571   1.262       .  A
C1573      C1574   1.398       .  A
C1573      C1578   1.401       .  A
C1573      H1580   1.084       .  S
C1574      C1575   1.416       .  A
C1575      C1576   1.402       .  A
C1575      N1582   1.433       .  S
C1576      C1577   1.400       .  A
C1576      H1581   1.084       .  S
C1577      C1578   1.414       .  A
C1578      N1579   1.433       .  S
N1579      O1583   1.262       .  A
N1579      O1584   1.262       .  A
N1582      O1586   1.262       .  A
N1582      O1585   1.262       .  A
C1587      C1588   1.405       .  A
C1587      C1592   1.407       .  A
C1587      H1594   1.075       .  S
C1588      C1589   1.417       .  A
C1589      C1590   1.412       .  A
C1589      N1596   1.430       .  S
C1590      C1591   1.420       .  A
C1590      H1595   1.084       .  S
C1591      C1592   1.444       .  A
C1592      N1593   1.437       .  S
N1593      O1597   1.260       .  A
N1593      O1598   1.263       .  A
N1596      O1600   1.262       .  A
N1596      O1599   1.262       .  A
C1601      C1602   1.400   1_455  A
C1601      C1606   1.404       .  A
C1601      H1608   1.084       .  S
C1602      C1603   1.412       .  A
C1603      C1604   1.399       .  A
C1603      N1610   1.434       .  S
C1604      C1605   1.397   1_655  A
C1604      H1609   1.084       .  S
C1605      C1606   1.415       .  A
C1606      N1607   1.437       .  S
N1607      O1611   1.263       .  A
N1607      O1612   1.262       .  A
N1610      O1614   1.262       .  A
N1610      O1613   1.263       .  A
C1615      C1616   1.407       .  A
C1615      C1620   1.401       .  A
C1615      H1622   1.083       .  S
C1616      C1617   1.403       .  A
C1617      C1618   1.399       .  A
C1617      N1624   1.429       .  S
C1618      C1619   1.411       .  A
C1618      H1623   1.079       .  S
C1619      C1620   1.410       .  A
C1620      N1621   1.431       .  S
N1621      O1625   1.262       .  A
N1621      O1626   1.262       .  A
N1624      O1628   1.262       .  A
N1624      O1627   1.262       .  A
C1629      C1630   1.408       .  A
C1629      C1634   1.403       .  A
C1629      H1636   1.084       .  S
C1630      C1631   1.411       .  A
C1631      C1632   1.401       .  A
C1631      N1638   1.429       .  S
C1632      C1633   1.406       .  A
C1632      H1637   1.083       .  S
C1633      C1634   1.409       .  A
C1634      N1635   1.432       .  S
N1635      O1639   1.262       .  A
N1635      O1640   1.262       .  A
N1638      O1642   1.262       .  A
N1638      O1641   1.262       .  A
C1643      C1644   1.406       .  A
C1643      C1648   1.405       .  A
C1643      H1650   1.084       .  S
C1644      C1645   1.409       .  A
C1645      C1646   1.399       .  A
C1645      N1652   1.434       .  S
C1646      C1647   1.406       .  A
C1646      H1651   1.084       .  S
C1647      C1648   1.411       .  A
C1648      N1649   1.433       .  S
N1649      O1653   1.262       .  A
N1649      O1654   1.262       .  A
N1652      O1656   1.263       .  A
N1652      O1655   1.262       .  A
C1657      C1658   1.407       .  A
C1657      C1662   1.403       .  A
C1657      H1664   1.083       .  S
C1658      C1659   1.402       .  A
C1659      C1660   1.399       .  A
C1659      N1666   1.431       .  S
C1660      C1661   1.414       .  A
C1660      H1665   1.077       .  S
C1661      C1662   1.412       .  A
C1662      N1663   1.428       .  S
N1663      O1667   1.262       .  A
N1663      O1668   1.261       .  A
N1666      O1670   1.262       .  A
N1666      O1669   1.262       .  A
C1671      C1672   1.402       .  A
C1671      C1676   1.401       .  A
C1671      H1678   1.083       .  S
C1672      C1673   1.410       .  A
C1673      C1674   1.405       .  A
C1673      N1680   1.438       .  S
C1674      C1675   1.403       .  A
C1674      H1679   1.084       .  S
C1675      C1676   1.409       .  A
C1676      N1677   1.436       .  S
N1677      O1681   1.262       .  A
N1677      O1682   1.262       .  A
N1680      O1684   1.262       .  A
N1680      O1683   1.262       .  A
C1685      C1686   1.406       .  A
C1685      C1690   1.400       .  A
C1685      H1692   1.083       .  S
C1686      C1687   1.405       .  A
C1687      C1688   1.400       .  A
C1687      N1694   1.430       .  S
C1688      C1689   1.408       .  A
C1688      H1693   1.084       .  S
C1689      C1690   1.411       .  A
C1690      N1691   1.436       .  S
N1691      O1695   1.262       .  A
N1691      O1696   1.263       .  A
N1694      O1698   1.262       .  A
N1694      O1697   1.262       .  A
C1699      C1700   1.398       .  A
C1699      C1704   1.400       .  A
C1699      H1706   1.084       .  S
C1700      C1701   1.415       .  A
C1701      C1702   1.401       .  A
C1701      N1708   1.438       .  S
C1702      C1703   1.398       .  A
C1702      H1707   1.084       .  S
C1703      C1704   1.416       .  A
C1704      N1705   1.436       .  S
N1705      O1709   1.263       .  A
N1705      O1710   1.262       .  A
N1708      O1712   1.262       .  A
N1708      O1711   1.263       .  A
C1713      C1714   1.405       .  A
C1713      C1718   1.409       .  A
C1713      H1720   1.080       .  S
C1714      C1715   1.417       .  A
C1715      C1716   1.405       .  A
C1715      N1722   1.435       .  S
C1716      C1717   1.415       .  A
C1716      H1721   1.075       .  S
C1717      C1718   1.438       .  A
C1718      N1719   1.436       .  S
N1719      O1723   1.262       .  A
N1719      O1724   1.261       .  A
N1722      O1726   1.262       .  A
N1722      O1725   1.262       .  A
C1727      C1728   1.412       .  A
C1727      C1732   1.402       .  A
C1727      H1734   1.083       .  S
C1728      C1729   1.409       .  A
C1729      C1730   1.398       .  A
C1729      N1736   1.431       .  S
C1730      C1731   1.411       .  A
C1730      H1735   1.083       .  S
C1731      C1732   1.408       .  A
C1732      N1733   1.432       .  S
N1733      O1737   1.262       .  A
N1733      O1738   1.262       .  A
N1736      O1740   1.262       .  A
N1736      O1739   1.262       .  A
C1741      C1742   1.398       .  A
C1741      C1746   1.398       .  A
C1741      H1748   1.084       .  S
C1742      C1743   1.410       .  A
C1743      C1744   1.398       .  A
C1743      N1750   1.434       .  S
C1744      C1745   1.402       .  A
C1744      H1749   1.084       .  S
C1745      C1746   1.416       .  A
C1746      N1747   1.429       .  S
N1747      O1751   1.262       .  A
N1747      O1752   1.262       .  A
N1750      O1754   1.262       .  A
N1750      O1753   1.263       .  A
C1755      C1756   1.420       .  A
C1755      C1760   1.411       .  A
C1755      H1762   1.075       .  S
C1756      C1757   1.431       .  A
C1757      C1758   1.405       .  A
C1757      N1764   1.431       .  S
C1758      C1759   1.407       .  A
C1758      H1763   1.083       .  S
C1759      C1760   1.418       .  A
C1760      N1761   1.431       .  S
N1761      O1765   1.263       .  A
N1761      O1766   1.262       .  A
N1764      O1768   1.262       .  A
N1764      O1767   1.262       .  A
C1769      C1770   1.409       .  A
C1769      C1774   1.399       .  A
C1769      H1776   1.084       .  S
C1770      C1771   1.410       .  A
C1771      C1772   1.402       .  A
C1771      N1778   1.432       .  S
C1772      C1773   1.410       .  A
C1772      H1777   1.084       .  S
C1773      C1774   1.407       .  A
C1774      N1775   1.432       .  S
N1775      O1779   1.262       .  A
N1775      O1780   1.262       .  A
N1778      O1782   1.261       .  A
N1778      O1781   1.262       .  A
C1783      C1784   1.399       .  A
C1783      C1788   1.404       .  A
C1783      H1790   1.084       .  S
C1784      C1785   1.410       .  A
C1785      C1786   1.395       .  A
C1785      N1792   1.431       .  S
C1786      C1787   1.400       .  A
C1786      H1791   1.084       .  S
C1787      C1788   1.417       .  A
C1788      N1789   1.432       .  S
N1789      O1793   1.262       .  A
N1789      O1794   1.262       .  A
N1792      O1796   1.261       .  A
N1792      O1795   1.262       .  A
C1797      C1798   1.399       .  A
C1797      C1802   1.401       .  A
C1797      H1804   1.084       .  S
C1798      C1799   1.418       .  A
C1799      C1800   1.404       .  A
C1799      N1806   1.426       .  S
C1800      C1801   1.398       .  A
C1800      H1805   1.084       .  S
C1801      C1802   1.420       .  A
C1802      N1803   1.432       .  S
N1803      O1807   1.262       .  A
N1803      O1808   1.262       .  A
N1806      O1810   1.261       .  A
N1806      O1809   1.262       .  A
C1811      C1812   1.407       .  A
C1811      C1816   1.410       .  A
C1811      H1818   1.074       .  S
C1812      C1813   1.418       .  A
C1813      C1814   1.409       .  A
C1813      N1820   1.429       .  S
C1814      C1815   1.418       .  A
C1814      H1819   1.084       .  S
C1815      C1816   1.440       .  A
C1816      N1817   1.433       .  S
N1817      O1821   1.261       .  A
N1817      O1822   1.263       .  A
N1820      O1824   1.262       .  A
N1820      O1823   1.262       .  A
C1825      C1826   1.403   1_556  A
C1825      C1830   1.396       .  A
C1825      H1832   1.084       .  S
C1826      C1827   1.406       .  A
C1827      C1828   1.399       .  A
C1827      N1834   1.430       .  S
C1828      C1829   1.406   1_554  A
C1828      H1833   1.084       .  S
C1829      C1830   1.409       .  A
C1830      N1831   1.433       .  S
N1831      O1835   1.262       .  A
N1831      O1836   1.262       .  A
N1834      O1838   1.262       .  A
N1834      O1837   1.261       .  A
C1839      C1840   1.402       .  A
C1839      C1844   1.405       .  A
C1839      H1846   1.084       .  S
C1840      C1841   1.416       .  A
C1841      C1842   1.401       .  A
C1841      N1848   1.429       .  S
C1842      C1843   1.397       .  A
C1842      H1847   1.084       .  S
C1843      C1844   1.415       .  A
C1844      N1845   1.430       .  S
N1845      O1849   1.262       .  A
N1845      O1850   1.262       .  A
N1848      O1852   1.262       .  A
N1848      O1851   1.261       .  A
C1853      C1854   1.405       .  A
C1853      C1858   1.408       .  A
C1853      H1860   1.084       .  S
C1854      C1855   1.422       .  A
C1855      C1856   1.408       .  A
C1855      N1862   1.429       .  S
C1856      C1857   1.418       .  A
C1856      H1861   1.078       .  S
C1857      C1858   1.434       .  A
C1858      N1859   1.431       .  S
N1859      O1863   1.262       .  A
N1859      O1864   1.262       .  A
N1862      O1866   1.263       .  A
N1862      O1865   1.262       .  A
C1867      C1868   1.405       .  A
C1867      C1872   1.398       .  A
C1867      H1874   1.082       .  S
C1868      C1869   1.413       .  A
C1869      C1870   1.408       .  A
C1869      N1876   1.440       .  S
C1870      C1871   1.407       .  A
C1870      H1875   1.083   1_554  S
C1871      C1872   1.410       .  A
C1872      N1873   1.434       .  S
N1873      O1877   1.262   1_554  A
N1873      O1878   1.262       .  A
N1876      O1880   1.262       .  A
N1876      O1879   1.263   1_554  A
C1881      C1882   1.405   1_556  A
C1881      C1886   1.396       .  A
C1881      H1888   1.083       .  S
C1882      C1883   1.411       .  A
C1883      C1884   1.403       .  A
C1883      N1890   1.435       .  S
C1884      C1885   1.406   1_554  A
C1884      H1889   1.084       .  S
C1885      C1886   1.407       .  A
C1886      N1887   1.429       .  S
N1887      O1891   1.262       .  A
N1887      O1892   1.262       .  A
N1890      O1894   1.262       .  A
N1890      O1893   1.262       .  A
C1895      C1896   1.406   1_655  A
C1895      C1900   1.405   1_655  A
C1895      H1902   1.083       .  S
C1896      C1897   1.419       .  A
C1897      C1898   1.395       .  A
C1897      N1904   1.429       .  S
C1898      C1899   1.395       .  A
C1898      H1903   1.085       .  S
C1899      C1900   1.411       .  A
C1900      N1901   1.438   1_455  S
N1901      O1905   1.263       .  A
N1901      O1906   1.263       .  A
N1904      O1908   1.262       .  A
N1904      O1907   1.262       .  A
C1909      C1910   1.407       .  A
C1909      C1914   1.410       .  A
C1909      H1916   1.076       .  S
C1910      C1911   1.415       .  A
C1911      C1912   1.402       .  A
C1911      N1918   1.432       .  S
C1912      C1913   1.419       .  A
C1912      H1917   1.083       .  S
C1913      C1914   1.436       .  A
C1914      N1915   1.433       .  S
N1915      O1919   1.263       .  A
N1915      O1920   1.261       .  A
N1918      O1922   1.262   1_554  A
N1918      O1921   1.262       .  A
C1923      C1924   1.418       .  A
C1923      C1928   1.411       .  A
C1923      H1930   1.078       .  S
C1924      C1925   1.433       .  A
C1925      C1926   1.409       .  A
C1925      N1932   1.431       .  S
C1926      C1927   1.406       .  A
C1926      H1931   1.084       .  S
C1927      C1928   1.420       .  A
C1928      N1929   1.431       .  S
N1929      O1933   1.263       .  A
N1929      O1934   1.263       .  A
N1932      O1936   1.262       .  A
N1932      O1935   1.262       .  A
C1937      C1938   1.410   1_565  A
C1937      C1942   1.403       .  A
C1937      H1944   1.083       .  S
C1938      C1939   1.408       .  A
C1939      C1940   1.399       .  A
C1939      N1946   1.435       .  S
C1940      C1941   1.408   1_545  A
C1940      H1945   1.084       .  S
C1941      C1942   1.407       .  A
C1942      N1943   1.432       .  S
N1943      O1947   1.262       .  A
N1943      O1948   1.262       .  A
N1946      O1950   1.263       .  A
N1946      O1949   1.262       .  A
C1951      C1952   1.412       .  A
C1951      C1956   1.399   1_545  A
C1951      H1958   1.084       .  S
C1952      C1953   1.405       .  A
C1953      C1954   1.404       .  A
C1953      N1960   1.429       .  S
C1954      C1955   1.414       .  A
C1954      H1959   1.084       .  S
C1955      C1956   1.405   1_545  A
C1956      N1957   1.429       .  S
N1957      O1961   1.262   1_565  A
N1957      O1962   1.262       .  A
N1960      O1964   1.261       .  A
N1960      O1963   1.262       .  A
C1965      C1966   1.404       .  A
C1965      C1970   1.401       .  A
C1965      H1972   1.083       .  S
C1966      C1967   1.419       .  A
C1967      C1968   1.401       .  A
C1967      N1974   1.429       .  S
C1968      C1969   1.398       .  A
C1968      H1973   1.084       .  S
C1969      C1970   1.410       .  A
C1970      N1971   1.432       .  S
N1971      O1975   1.263       .  A
N1971      O1976   1.261       .  A
N1974      O1978   1.262       .  A
N1974      O1977   1.262       .  A
C1979      C1980   1.419       .  A
C1979      C1984   1.416       .  A
C1979      H1986   1.077       .  S
C1980      C1981   1.435       .  A
C1981      C1982   1.411       .  A
C1981      N1988   1.428       .  S
C1982      C1983   1.405       .  A
C1982      H1987   1.084       .  S
C1983      C1984   1.425       .  A
C1984      N1985   1.424       .  S
N1985      O1989   1.262       .  A
N1985      O1990   1.262       .  A
N1988      O1992   1.262       .  A
N1988      O1991   1.263       .  A
C1993      C1994   1.399       .  A
C1993      C1998   1.401       .  A
C1993      H2000   1.084       .  S
C1994      C1995   1.416   1_556  A
C1995      C1996   1.401       .  A
C1995      N2002   1.430       .  S
C1996      C1997   1.397   1_554  A
C1996      H2001   1.084       .  S
C1997      C1998   1.421       .  A
C1998      N1999   1.436       .  S
N1999      O2003   1.263       .  A
N1999      O2004   1.262       .  A
N2002      O2006   1.261       .  A
N2002      O2005   1.263       .  A
C2007      C2008   1.399       .  A
C2007      C2012   1.401       .  A
C2007      H2014   1.084       .  S
C2008      C2009   1.418       .  A
C2009      C2010   1.406       .  A
C2009      N2016   1.435       .  S
C2010      C2011   1.400       .  A
C2010      H2015   1.084       .  S
C2011      C2012   1.419       .  A
C2012      N2013   1.434       .  S
N2013      O2017   1.263       .  A
N2013      O2018   1.262       .  A
N2016      O2020   1.262       .  A
N2016      O2019   1.263       .  A
C2021      C2022   1.399       .  A
C2021      C2026   1.402       .  A
C2021      H2028   1.084       .  S
C2022      C2023   1.416   1_655  A
C2023      C2024   1.405       .  A
C2023      N2030   1.432       .  S
C2024      C2025   1.398       .  A
C2024      H2029   1.084       .  S
C2025      C2026   1.418   1_455  A
C2026      N2027   1.434       .  S
N2027      O2031   1.262       .  A
N2027      O2032   1.263       .  A
N2030      O2034   1.262       .  A
N2030      O2033   1.263       .  A
C2035      C2036   1.400       .  A
C2035      C2040   1.406   1_455  A
C2035      H2042   1.084       .  S
C2036      C2037   1.419   1_455  A
C2037      C2038   1.402       .  A
C2037      N2044   1.435       .  S
C2038      C2039   1.399       .  A
C2038      H2043   1.084       .  S
C2039      C2040   1.416       .  A
C2040      N2041   1.432       .  S
N2041      O2045   1.262   1_655  A
N2041      O2046   1.261       .  A
N2044      O2048   1.263   1_655  A
N2044      O2047   1.262       .  A
C2049      C2050   1.400       .  A
C2049      C2054   1.404       .  A
C2049      H2056   1.084       .  S
C2050      C2051   1.412       .  A
C2051      C2052   1.403       .  A
C2051      N2058   1.436       .  S
C2052      C2053   1.402       .  A
C2052      H2057   1.083       .  S
C2053      C2054   1.414       .  A
C2054      N2055   1.430       .  S
N2055      O2059   1.262       .  A
N2055      O2060   1.262       .  A
N2058      O2062   1.263       .  A
N2058      O2061   1.262       .  A
C2063      C2064   1.416       .  A
C2063      C2068   1.411       .  A
C2063      H2070   1.078       .  S
C2064      C2065   1.429       .  A
C2065      C2066   1.415       .  A
C2065      N2072   1.431       .  S
C2066      C2067   1.414       .  A
C2066      H2071   1.084       .  S
C2067      C2068   1.424       .  A
C2068      N2069   1.424       .  S
N2069      O2073   1.262   1_655  A
N2069      O2074   1.262   1_655  A
N2072      O2076   1.262       .  A
N2072      O2075   1.262       .  A
C2077      C2078   1.417       .  A
C2077      C2082   1.415       .  A
C2077      H2084   1.074       .  S
C2078      C2079   1.434       .  A
C2079      C2080   1.419       .  A
C2079      N2086   1.432       .  S
C2080      C2081   1.413       .  A
C2080      H2085   1.083       .  S
C2081      C2082   1.425       .  A
C2082      N2083   1.433       .  S
N2083      O2087   1.263       .  A
N2083      O2088   1.263       .  A
N2086      O2090   1.262       .  A
N2086      O2089   1.262       .  A
C2091      C2092   1.417       .  A
C2091      C2096   1.414       .  A
C2091      H2098   1.075       .  S
C2092      C2093   1.433       .  A
C2093      C2094   1.414       .  A
C2093      N2100   1.431       .  S
C2094      C2095   1.410       .  A
C2094      H2099   1.083       .  S
C2095      C2096   1.424       .  A
C2096      N2097   1.433       .  S
N2097      O2101   1.263       .  A
N2097      O2102   1.263       .  A
N2100      O2104   1.262       .  A
N2100      O2103   1.262       .  A
C2105      C2106   1.412       .  A
C2105      C2110   1.417       .  A
C2105      H2112   1.083       .  S
C2106      C2107   1.422       .  A
C2107      C2108   1.411       .  A
C2107      N2114   1.431       .  S
C2108      C2109   1.420       .  A
C2108      H2113   1.077       .  S
C2109      C2110   1.432       .  A
C2110      N2111   1.433       .  S
N2111      O2115   1.262       .  A
N2111      O2116   1.262       .  A
N2114      O2118   1.263       .  A
N2114      O2117   1.262       .  A
C2119      C2120   1.402       .  A
C2119      C2124   1.410       .  A
C2119      H2126   1.084       .  S
C2120      C2121   1.420       .  A
C2121      C2122   1.403       .  A
C2121      N2128   1.426       .  S
C2122      C2123   1.395       .  A
C2122      H2127   1.084       .  S
C2123      C2124   1.419       .  A
C2124      N2125   1.433       .  S
N2125      O2129   1.262       .  A
N2125      O2130   1.263       .  A
N2128      O2132   1.262       .  A
N2128      O2131   1.262       .  A
C2133      C2134   1.401       .  A
C2133      C2138   1.401       .  A
C2133      H2140   1.082       .  S
C2134      C2135   1.405       .  A
C2135      C2136   1.404       .  A
C2135      N2142   1.431       .  S
C2136      C2137   1.407       .  A
C2136      H2141   1.084   1_556  S
C2137      C2138   1.411       .  A
C2138      N2139   1.437       .  S
N2139      O2143   1.262       .  A
N2139      O2144   1.262       .  A
N2142      O2146   1.262       .  A
N2142      O2145   1.262   1_556  A
C2147      C2148   1.397       .  A
C2147      C2152   1.397   1_556  A
C2147      H2154   1.084       .  S
C2148      C2149   1.415   1_556  A
C2149      C2150   1.400       .  A
C2149      N2156   1.431   1_554  S
C2150      C2151   1.395       .  A
C2150      H2155   1.084       .  S
C2151      C2152   1.414       .  A
C2152      N2153   1.427       .  S
N2153      O2157   1.262   1_554  A
N2153      O2158   1.261       .  A
N2156      O2160   1.263   1_556  A
N2156      O2159   1.262       .  A
C2161      C2162   1.396       .  A
C2161      C2166   1.402       .  A
C2161      H2168   1.084       .  S
C2162      C2163   1.421       .  A
C2163      C2164   1.406       .  A
C2163      N2170   1.434       .  S
C2164      C2165   1.400       .  A
C2164      H2169   1.084       .  S
C2165      C2166   1.419       .  A
C2166      N2167   1.430       .  S
N2167      O2171   1.262       .  A
N2167      O2172   1.260       .  A
N2170      O2174   1.262       .  A
N2170      O2173   1.263       .  A
C2175      C2176   1.407   1_556  A
C2175      C2180   1.395       .  A
C2175      H2182   1.081       .  S
C2176      C2177   1.409       .  A
C2177      C2178   1.408       .  A
C2177      N2184   1.430       .  S
C2178      C2179   1.411   1_554  A
C2178      H2183   1.084       .  S
C2179      C2180   1.407       .  A
C2180      N2181   1.429       .  S
N2181      O2185   1.262       .  A
N2181      O2186   1.262       .  A
N2184      O2188   1.261       .  A
N2184      O2187   1.261       .  A
C2189      C2190   1.401       .  A
C2189      C2194   1.403       .  A
C2189      H2196   1.084       .  S
C2190      C2191   1.413       .  A
C2191      C2192   1.393       .  A
C2191      N2198   1.426       .  S
C2192      C2193   1.394       .  A
C2192      H2197   1.084       .  S
C2193      C2194   1.415       .  A
C2194      N2195   1.429       .  S
N2195      O2199   1.262   1_554  A
N2195      O2200   1.262       .  A
N2198      O2202   1.260       .  A
N2198      O2201   1.262       .  A
C2203      C2204   1.409       .  A
C2203      C2208   1.412       .  A
C2203      H2210   1.077       .  S
C2204      C2205   1.420       .  A
C2205      C2206   1.411       .  A
C2205      N2212   1.435       .  S
C2206      C2207   1.421       .  A
C2206      H2211   1.083       .  S
C2207      C2208   1.437       .  A
C2208      N2209   1.431       .  S
N2209      O2213   1.263       .  A
N2209      O2214   1.261       .  A
N2212      O2216   1.262       .  A
N2212      O2215   1.263       .  A
C2217      C2218   1.410       .  A
C2217      C2222   1.403       .  A
C2217      H2224   1.083       .  S
C2218      C2219   1.409       .  A
C2219      C2220   1.402       .  A
C2219      N2226   1.432       .  S
C2220      C2221   1.409       .  A
C2220      H2225   1.084       .  S
C2221      C2222   1.407       .  A
C2222      N2223   1.430       .  S
N2223      O2227   1.262       .  A
N2223      O2228   1.262       .  A
N2226      O2230   1.262       .  A
N2226      O2229   1.262       .  A
C2231      C2232   1.400       .  A
C2231      C2236   1.401       .  A
C2231      H2238   1.084       .  S
C2232      C2233   1.407       .  A
C2233      C2234   1.398       .  A
C2233      N2240   1.436       .  S
C2234      C2235   1.405       .  A
C2234      H2239   1.083       .  S
C2235      C2236   1.418       .  A
C2236      N2237   1.431       .  S
N2237      O2241   1.262       .  A
N2237      O2242   1.262       .  A
N2240      O2244   1.263       .  A
N2240      O2243   1.262       .  A
C2245      C2246   1.407       .  A
C2245      C2250   1.414       .  A
C2245      H2252   1.078       .  S
C2246      C2247   1.415       .  A
C2247      C2248   1.402       .  A
C2247      N2254   1.431       .  S
C2248      C2249   1.413       .  A
C2248      H2253   1.076       .  S
C2249      C2250   1.438       .  A
C2250      N2251   1.435       .  S
N2251      O2255   1.261       .  A
N2251      O2256   1.263       .  A
N2254      O2258   1.262       .  A
N2254      O2257   1.261       .  A
C2259      C2260   1.400       .  A
C2259      C2264   1.407       .  A
C2259      H2266   1.084       .  S
C2260      C2261   1.418       .  A
C2261      C2262   1.405       .  A
C2261      N2268   1.433       .  S
C2262      C2263   1.401       .  A
C2262      H2267   1.084       .  S
C2263      C2264   1.416       .  A
C2264      N2265   1.432       .  S
N2265      O2269   1.262       .  A
N2265      O2270   1.262       .  A
N2268      O2272   1.262       .  A
N2268      O2271   1.263       .  A
C2273      C2274   1.399       .  A
C2273      C2278   1.406       .  A
C2273      H2280   1.084       .  S
C2274      C2275   1.418       .  A
C2275      C2276   1.401       .  A
C2275      N2282   1.428       .  S
C2276      C2277   1.398       .  A
C2276      H2281   1.084       .  S
C2277      C2278   1.421       .  A
C2278      N2279   1.430       .  S
N2279      O2283   1.262       .  A
N2279      O2284   1.261       .  A
N2282      O2286   1.262       .  A
N2282      O2285   1.262       .  A
C2287      C2288   1.406       .  A
C2287      C2292   1.406       .  A
C2287      H2294   1.084       .  S
C2288      C2289   1.407       .  A
C2289      C2290   1.395       .  A
C2289      N2296   1.430       .  S
C2290      C2291   1.405       .  A
C2290      H2295   1.084       .  S
C2291      C2292   1.412       .  A
C2292      N2293   1.434       .  S
N2293      O2297   1.261       .  A
N2293      O2298   1.262       .  A
N2296      O2300   1.262       .  A
N2296      O2299   1.262       .  A
C2301      C2302   1.410       .  A
C2301      C2306   1.406       .  A
C2301      H2308   1.083       .  S
C2302      C2303   1.424       .  A
C2303      C2304   1.404       .  A
C2303      N2310   1.434       .  S
C2304      C2305   1.396       .  A
C2304      H2309   1.085       .  S
C2305      C2306   1.409       .  A
C2306      N2307   1.437       .  S
N2307      O2311   1.262       .  A
N2307      O2312   1.263       .  A
N2310      O2314   1.262       .  A
N2310      O2313   1.262       .  A
C2315      C2316   1.396       .  A
C2315      C2320   1.400       .  A
C2315      H2322   1.084       .  S
C2316      C2317   1.419       .  A
C2317      C2318   1.408       .  A
C2317      N2324   1.434       .  S
C2318      C2319   1.403       .  A
C2318      H2323   1.084       .  S
C2319      C2320   1.419       .  A
C2320      N2321   1.428       .  S
N2321      O2325   1.260       .  A
N2321      O2326   1.263       .  A
N2324      O2328   1.263       .  A
N2324      O2327   1.262       .  A
C2329      C2330   1.404       .  A
C2329      C2334   1.397       .  A
C2329      H2336   1.084       .  S
C2330      C2331   1.415       .  A
C2331      C2332   1.409       .  A
C2331      N2338   1.437       .  S
C2332      C2333   1.408       .  A
C2332      H2337   1.084       .  S
C2333      C2334   1.411       .  A
C2334      N2335   1.429       .  S
N2335      O2339   1.262       .  A
N2335      O2340   1.262       .  A
N2338      O2342   1.262       .  A
N2338      O2341   1.262       .  A
C2343      C2344   1.422       .  A
C2343      C2348   1.419       .  A
C2343      H2350   1.084       .  S
C2344      C2345   1.443       .  A
C2345      C2346   1.413       .  A
C2345      N2352   1.433       .  S
C2346      C2347   1.407       .  A
C2346      H2351   1.076       .  S
C2347      C2348   1.421       .  A
C2348      N2349   1.432       .  S
N2349      O2353   1.262       .  A
N2349      O2354   1.261       .  A
N2352      O2356   1.260       .  A
N2352      O2355   1.263       .  A
C2357      C2358   1.394       .  A
C2357      C2362   1.401       .  A
C2357      H2364   1.084       .  S
C2358      C2359   1.418       .  A
C2359      C2360   1.406       .  A
C2359      N2366   1.430       .  S
C2360      C2361   1.402       .  A
C2360      H2365   1.084       .  S
C2361      C2362   1.422       .  A
C2362      N2363   1.428       .  S
N2363      O2367   1.262       .  A
N2363      O2368   1.261       .  A
N2366      O2370   1.262       .  A
N2366      O2369   1.262       .  A
C2371      C2372   1.409       .  A
C2371      C2376   1.405       .  A
C2371      H2378   1.084       .  S
C2372      C2373   1.415       .  A
C2373      C2374   1.400       .  A
C2373      N2380   1.434       .  S
C2374      C2375   1.402       .  A
C2374      H2379   1.085       .  S
C2375      C2376   1.405       .  A
C2376      N2377   1.429       .  S
N2377      O2381   1.262       .  A
N2377      O2382   1.262       .  A
N2380      O2384   1.263       .  A
N2380      O2383   1.262       .  A
C2385      C2386   1.399       .  A
C2385      C2390   1.402   1_545  A
C2385      H2392   1.084   1_545  S
C2386      C2387   1.408       .  A
C2387      C2388   1.400       .  A
C2387      N2394   1.436   1_455  S
C2388      C2389   1.405       .  A
C2388      H2393   1.083   1_455  S
C2389      C2390   1.420   1_545  A
C2390      N2391   1.430       .  S
N2391      O2395   1.262       .  A
N2391      O2396   1.262       .  A
N2394      O2398   1.262       .  A
N2394      O2397   1.263       .  A
C2399      C2400   1.407   1_545  A
C2399      C2404   1.405       .  A
C2399      H2406   1.084       .  S
C2400      C2401   1.409       .  A
C2401      C2402   1.401       .  A
C2401      N2408   1.433       .  S
C2402      C2403   1.408   1_565  A
C2402      H2407   1.083       .  S
C2403      C2404   1.413       .  A
C2404      N2405   1.435       .  S
N2405      O2409   1.261       .  A
N2405      O2410   1.262       .  A
N2408      O2412   1.262       .  A
N2408      O2411   1.262       .  A
C2413      C2414   1.403       .  A
C2413      C2418   1.398       .  A
C2413      H2420   1.084       .  S
C2414      C2415   1.405       .  A
C2415      C2416   1.398       .  A
C2415      N2422   1.430       .  S
C2416      C2417   1.408       .  A
C2416      H2421   1.084       .  S
C2417      C2418   1.411       .  A
C2418      N2419   1.429       .  S
N2419      O2423   1.262       .  A
N2419      O2424   1.262       .  A
N2422      O2426   1.262   1_455  A
N2422      O2425   1.262       .  A
C2427      C2428   1.405       .  A
C2427      C2432   1.407       .  A
C2427      H2434   1.075       .  S
C2428      C2429   1.418       .  A
C2429      C2430   1.408       .  A
C2429      N2436   1.432       .  S
C2430      C2431   1.418       .  A
C2430      H2435   1.083       .  S
C2431      C2432   1.441       .  A
C2432      N2433   1.436       .  S
N2433      O2437   1.263       .  A
N2433      O2438   1.260       .  A
N2436      O2440   1.262       .  A
N2436      O2439   1.262       .  A
C2441      C2442   1.404       .  A
C2441      C2446   1.394       .  A
C2441      H2448   1.083       .  S
C2442      C2443   1.409       .  A
C2443      C2444   1.404       .  A
C2443      N2450   1.433       .  S
C2444      C2445   1.407       .  A
C2444      H2449   1.084       .  S
C2445      C2446   1.406       .  A
C2446      N2447   1.429       .  S
N2447      O2451   1.262       .  A
N2447      O2452   1.262       .  A
N2450      O2454   1.260       .  A
N2450      O2453   1.262       .  A
C2455      C2456   1.402       .  A
C2455      C2460   1.404       .  A
C2455      H2462   1.084       .  S
C2456      C2457   1.415       .  A
C2457      C2458   1.397       .  A
C2457      N2464   1.428       .  S
C2458      C2459   1.397       .  A
C2458      H2463   1.084       .  S
C2459      C2460   1.414       .  A
C2460      N2461   1.429       .  S
N2461      O2465   1.262       .  A
N2461      O2466   1.262       .  A
N2464      O2468   1.261       .  A
N2464      O2467   1.262       .  A
C2469      C2470   1.401       .  A
C2469      C2474   1.407       .  A
C2469      H2476   1.084       .  S
C2470      C2471   1.411       .  A
C2471      C2472   1.399       .  A
C2471      N2478   1.432       .  S
C2472      C2473   1.402       .  A
C2472      H2477   1.084       .  S
C2473      C2474   1.421       .  A
C2474      N2475   1.433       .  S
N2475      O2479   1.262       .  A
N2475      O2480   1.262       .  A
N2478      O2482   1.262       .  A
N2478      O2481   1.263       .  A
C2483      C2484   1.408       .  A
C2483      C2488   1.413       .  A
C2483      H2490   1.083       .  S
C2484      C2485   1.418       .  A
C2485      C2486   1.403       .  A
C2485      N2492   1.431       .  S
C2486      C2487   1.412       .  A
C2486      H2491   1.094       .  S
C2487      C2488   1.440       .  A
C2488      N2489   1.434       .  S
N2489      O2493   1.263       .  A
N2489      O2494   1.261       .  A
N2492      O2496   1.260       .  A
N2492      O2495   1.263       .  A
C2497      C2498   1.403       .  A
C2497      C2502   1.408   1_545  A
C2497      H2504   1.084   1_545  S
C2498      C2499   1.413   1_554  A
C2499      C2500   1.392       .  A
C2499      N2506   1.426       .  S
C2500      C2501   1.397   1_545  A
C2500      H2505   1.084       .  S
C2501      C2502   1.417   1_556  A
C2502      N2503   1.430       .  S
N2503      O2507   1.262       .  A
N2503      O2508   1.262       .  A
N2506      O2510   1.262       .  A
N2506      O2509   1.261       .  A
C2511      C2512   1.402   1_565  A
C2511      C2516   1.391       .  A
C2511      H2518   1.084       .  S
C2512      C2513   1.413       .  A
C2513      C2514   1.407       .  A
C2513      N2520   1.437       .  S
C2514      C2515   1.409       .  A
C2514      H2519   1.084       .  S
C2515      C2516   1.410   1_545  A
C2516      N2517   1.431       .  S
N2517      O2521   1.262       .  A
N2517      O2522   1.262       .  A
N2520      O2524   1.262       .  A
N2520      O2523   1.262       .  A
C2525      C2526   1.403       .  A
C2525      C2530   1.399       .  A
C2525      H2532   1.084       .  S
C2526      C2527   1.410       .  A
C2527      C2528   1.407   1_554  A
C2527      N2534   1.437   1_554  S
C2528      C2529   1.408       .  A
C2528      H2533   1.083       .  S
C2529      C2530   1.413   1_556  A
C2530      N2531   1.434       .  S
N2531      O2535   1.263   1_554  A
N2531      O2536   1.262       .  A
N2534      O2538   1.262   1_556  A
N2534      O2537   1.262       .  A
C2539      C2540   1.408       .  A
C2539      C2544   1.406       .  A
C2539      H2546   1.084       .  S
C2540      C2541   1.419       .  A
C2541      C2542   1.410       .  A
C2541      N2548   1.428       .  S
C2542      C2543   1.418       .  A
C2542      H2547   1.078       .  S
C2543      C2544   1.429       .  A
C2544      N2545   1.431       .  S
N2545      O2549   1.262       .  A
N2545      O2550   1.262       .  A
N2548      O2552   1.262       .  A
N2548      O2551   1.263       .  A
