geometry optimzed in LAMMPS
_audit_creation_date              2020-12-01 
_audit_creation_method            'lammps2cif' 
_symmetry_space_group_name_H-M    'P1' 
_symmetry_Int_Tables_number       1 
_symmetry_cell_setting            triclinic 
loop_ 
_symmetry_equiv_pos_as_xyz 
  x,y,z 
_cell_length_a                    43.75494724 
_cell_length_b                    43.69406468215667 
_cell_length_c                    33.726506733093295 
_cell_angle_alpha                 89.40571486482112 
_cell_angle_beta                  89.61234559589033 
_cell_angle_gamma                 88.54386295702983 
loop_ 
_atom_site_label 
_atom_site_type_symbol 
_atom_site_fract_x 
_atom_site_fract_y 
_atom_site_fract_z 
_atom_site_charge 
O1          O  0.94488715  0.95695989  0.21694114    -0.80700
O2          O  0.04000453  0.05856277  0.17839820    -0.65400
O3          O  0.00136548  0.98108298  0.19417512    -1.12000
C4          C  0.01821017  0.00436706  0.33006372     1.06200
O5          O  0.07692822  0.04058972  0.21707908    -0.78600
O6          O  0.07633101  0.99175193  0.26561963    -0.66100
Ni7        Ni  0.96400178  0.97145223  0.16918147     1.34900
C8          C  0.06744088  0.96495668  0.25881956     0.85000
O9          O  0.01759207  0.01718306  0.12758757    -0.79100
O10         O  0.97968785  0.98405496  0.11876856    -0.89400
C11         C  0.06722383  0.05985598  0.19134635     0.84500
O12         O  0.94379337  0.01001080  0.17683072    -0.67600
O13         O  0.03858536  0.02259637  0.31744538    -0.86900
C14         C  0.95263836  0.03712706  0.18188276     0.85400
C15         C  0.00022804  0.00164973  0.10557492     1.06900
H16         H  0.00460300  0.03712024  0.24978951     0.38700
O17         O  0.01942548  0.02172524  0.24114923    -1.09500
O18         O  0.03978883  0.95900253  0.25132181    -0.66200
Ni19       Ni  0.00190481  0.98289283  0.25094341     1.26300
O20         O  0.98071308  0.04399450  0.18453535    -0.66400
O21         O  0.00301280  0.98695004  0.30767065    -0.78700
C22         C  0.95652643  0.93920075  0.24304269     0.84700
O23         O  0.98231945  0.94444584  0.25811607    -0.65900
Ni24       Ni  0.05659404  0.03114369  0.26638776     1.27400
Ni25       Ni  0.01896746  0.02033064  0.18451775     1.26100
H26         H  0.01620692  0.96574118  0.18558525     0.39300
O27         O  0.93019486  0.95852562  0.71697728    -0.80700
O28         O  0.02578180  0.05913594  0.67496753    -0.65400
O29         O  0.98653593  0.98294865  0.69446154    -1.12000
C30         C  0.00581406  0.01028052  0.82903662     1.06200
O31         O  0.06290986  0.04109876  0.71308644    -0.78600
O32         O  0.06183783  0.99515150  0.76640998    -0.66100
Ni33       Ni  0.94942304  0.97284085  0.66888420     1.34900
C34         C  0.05296207  0.96823339  0.76040185     0.85000
O35         O  0.00382786  0.01668075  0.62669144    -0.79100
O36         O  0.96529632  0.98449595  0.61763101    -0.89400
C37         C  0.05329785  0.05973518  0.68663539     0.84500
O38         O  0.92908183  0.01176610  0.67490412    -0.67600
O39         O  0.02500506  0.02898191  0.81466162    -0.86900
C40         C  0.93832597  0.03894811  0.67835541     0.85400
C41         C  0.98657684  0.00130516  0.60452366     1.06900
H42         H  0.99052763  0.04055283  0.74725410     0.38700
O43         O  0.00521437  0.02477784  0.73936811    -1.09500
O44         O  0.02546219  0.96225491  0.75184527    -0.66200
Ni45       Ni  0.98762285  0.98647343  0.75128331     1.26300
O46         O  0.96650621  0.04544563  0.68137058    -0.66400
O47         O  0.99016794  0.99202296  0.80811417    -0.78700
C48         C  0.94165549  0.94267142  0.74528220     0.84700
O49         O  0.96731281  0.94870692  0.76043491    -0.65900
Ni50       Ni  0.04274063  0.03477058  0.76320192     1.27400
Ni51       Ni  0.00459232  0.02152884  0.68305605     1.26100
H52         H  0.00130540  0.96728611  0.68659044     0.39300
O53         O  0.22991029  0.32339950  0.12284557    -0.80700
O54         O  0.32032185  0.21812883  0.08127740    -0.65400
O55         O  0.24587858  0.26428639  0.09808216    -1.12000
C56         C  0.26430695  0.23977900  0.23378587     1.06200
O57         O  0.30214492  0.18140209  0.11985952    -0.78600
O58         O  0.25067084  0.18616544  0.16291466    -0.66100
Ni59       Ni  0.23793308  0.30268466  0.07340048     1.34900
C60         C  0.22438859  0.19833550  0.15732629     0.85000
O61         O  0.27986063  0.24606820  0.03105188    -0.79100
O62         O  0.24485133  0.28443957  0.02247670    -0.89400
C63         C  0.32045310  0.19031883  0.09286553     0.84500
O64         O  0.27829695  0.31791745  0.07321113    -0.67600
O65         O  0.28070324  0.21745218  0.22055712    -0.86900
C66         C  0.30483554  0.30690590  0.08029134     0.85400
C67         C  0.26224055  0.26290222  0.00921561     1.06900
H68         H  0.30094456  0.25288950  0.15431945     0.38700
O69         O  0.28469902  0.24028921  0.14498557    -1.09500
O70         O  0.21999546  0.22717205  0.15355273    -0.66200
Ni71       Ni  0.24689627  0.26210409  0.15462240     1.26300
O72         O  0.30982234  0.27866408  0.08886345    -0.66400
O73         O  0.24976208  0.25890455  0.21152628    -0.78700
C74         C  0.21076096  0.31490868  0.14904402     0.84700
O75         O  0.21054981  0.28723781  0.16097499    -0.65900
Ni76       Ni  0.29089058  0.20112402  0.16903754     1.27400
Ni77       Ni  0.28365653  0.24294398  0.08817015     1.26100
H78         H  0.22993333  0.25120338  0.08907980     0.39300
O79         O  0.20903887  0.31816729  0.62391059    -0.80700
O80         O  0.30299192  0.21596558  0.57943823    -0.65400
O81         O  0.22795984  0.25943667  0.59970905    -1.12000
C82         C  0.24914356  0.23616566  0.73496061     1.06200
O83         O  0.29413822  0.17900714  0.62367811    -0.78600
O84         O  0.23900038  0.18133842  0.66015266    -0.66100
Ni85       Ni  0.21891341  0.29790244  0.57475631     1.34900
C86         C  0.21223088  0.19307680  0.65722302     0.85000
O87         O  0.26134109  0.24195887  0.53166039    -0.79100
O88         O  0.22779492  0.28134305  0.52313715    -0.89400
C89         C  0.30832913  0.18935912  0.59359708     0.84500
O90         O  0.25850957  0.31446150  0.57758856    -0.67600
O91         O  0.26427560  0.21327476  0.72142680    -0.86900
C92         C  0.28510383  0.30331284  0.58369324     0.85400
C93         C  0.24539527  0.26010091  0.50963688     1.06900
H94         H  0.28531028  0.25022604  0.65350692     0.38700
O95         O  0.26924978  0.23694029  0.64532836    -1.09500
O96         O  0.20652826  0.22180541  0.65731941    -0.66200
Ni97       Ni  0.23112917  0.25796256  0.65627836     1.26300
O98         O  0.29076136  0.27485037  0.58862823    -0.66400
O99         O  0.23566337  0.25612876  0.71297030    -0.78700
C100        C  0.19237314  0.30889100  0.65238249     0.84700
O101        O  0.19385276  0.28125877  0.66424162    -0.65900
Ni102      Ni  0.27777576  0.19832819  0.67064731     1.27400
Ni103      Ni  0.26592023  0.23885913  0.58848039     1.26100
H104        H  0.21196111  0.24600063  0.59172026     0.39300
O105        O  0.30664630  0.68494981  0.36637381    -0.80700
O106        O  0.21210590  0.78787416  0.32306564    -0.65400
O107        O  0.28755937  0.74352418  0.33971302    -1.12000
C108        C  0.26458818  0.76621903  0.47477413     1.06200
O109        O  0.22940059  0.82531989  0.35966676    -0.78600
O110        O  0.27896255  0.82199656  0.40647349    -0.66100
Ni111      Ni  0.29508536  0.70443266  0.31654003     1.34900
C112        C  0.30575419  0.81118572  0.40033152     0.85000
O113        O  0.25234065  0.76072184  0.27331540    -0.79100
O114        O  0.28484759  0.72051760  0.26443247    -0.89400
C115        C  0.21136578  0.81575751  0.33331702     0.84500
O116        O  0.25516755  0.68806254  0.32242494    -0.67600
O117        O  0.24752929  0.78798738  0.46114175    -0.86900
C118        C  0.22861196  0.69965272  0.32803523     0.85400
C119        C  0.26748043  0.74220311  0.25112118     1.06900
H120        H  0.23206277  0.75333342  0.39606208     0.38700
O121        O  0.24782142  0.76669183  0.38634027    -1.09500
O122        O  0.31131739  0.78264035  0.39491892    -0.66200
Ni123      Ni  0.28602464  0.74620229  0.39640643     1.26300
O124        O  0.22361472  0.72830496  0.33239132    -0.66400
O125        O  0.28172268  0.74890979  0.45322028    -0.78700
C126        C  0.32413259  0.69458031  0.39337323     0.84700
O127        O  0.32323270  0.72249012  0.40370601    -0.65900
Ni128      Ni  0.23915323  0.80529668  0.40957472     1.27400
Ni129      Ni  0.24921322  0.76412104  0.32996246     1.26100
H130        H  0.30343883  0.75665933  0.32992901     0.39300
O131        O  0.29428089  0.68290460  0.86261171    -0.80700
O132        O  0.19705722  0.78809890  0.81979393    -0.65400
O133        O  0.27108894  0.74131260  0.83878408    -1.12000
C134        C  0.24818054  0.76198824  0.97494419     1.06200
O135        O  0.21076710  0.82311919  0.86282352    -0.78600
O136        O  0.26041488  0.81808098  0.90775376    -0.66100
Ni137      Ni  0.27867126  0.70241392  0.81493271     1.34900
C138        C  0.28694337  0.80731656  0.90005944     0.85000
O139        O  0.23966576  0.76238800  0.77155940    -0.79100
O140        O  0.26599657  0.71790894  0.76395237    -0.89400
C141        C  0.19492305  0.81511837  0.83338733     0.84500
O142        O  0.23920538  0.68657077  0.82584536    -0.67600
O143        O  0.22996816  0.78316183  0.96240803    -0.86900
C144        C  0.21254890  0.69885750  0.82662262     0.85400
C145        C  0.25263769  0.74189654  0.75006065     1.06900
H146        H  0.21385378  0.74965216  0.89262188     0.38700
O147        O  0.22980715  0.76342977  0.88483648    -1.09500
O148        O  0.29258679  0.77905893  0.89411256    -0.66200
Ni149      Ni  0.26804007  0.74287498  0.89528200     1.26300
O150        O  0.20768262  0.72778269  0.82562298    -0.66400
O151        O  0.26416768  0.74485084  0.95204011    -0.78700
C152        C  0.31017582  0.69388585  0.89025427     0.84700
O153        O  0.30544362  0.72072946  0.90303866    -0.65900
Ni154      Ni  0.22086783  0.80117300  0.91113881     1.27400
Ni155      Ni  0.23361099  0.76330745  0.82803187     1.26100
H156        H  0.28756282  0.75412686  0.83002101     0.39300
O157        O  0.57318747  0.04114327  0.94916977    -0.80700
O158        O  0.47027082  0.94436561  0.91299068    -0.65400
O159        O  0.51621988  0.01643480  0.93068409    -1.12000
C160        C  0.49904933  0.98713259  0.06634965     1.06200
O161        O  0.43595563  0.96270309  0.95527376    -0.78600
O162        O  0.44231958  0.00663229  0.01041385    -0.66100
Ni163      Ni  0.55496265  0.02071100  0.90505362     1.34900
C164        C  0.45225452  0.03317345  0.00328575     0.85000
O165        O  0.49368913  0.98685275  0.86401673    -0.79100
O166        O  0.54156085  0.00274949  0.85631149    -0.89400
C167        C  0.44350339  0.94433514  0.92772774     0.84500
O168        O  0.57071794  0.98222673  0.92374835    -0.67600
O169        O  0.47936780  0.96852885  0.05370453    -0.86900
C170        C  0.55913472  0.95598591  0.92042207     0.85400
C171        C  0.51644290  0.99366667  0.84234216     1.06900
H172        H  0.50970781  0.95816342  0.98276006     0.38700
O173        O  0.49556480  0.97480588  0.97636096    -1.09500
O174        O  0.47916709  0.03775645  0.99029754    -0.66200
Ni175      Ni  0.51556630  0.01162708  0.98751166     1.26300
O176        O  0.53052118  0.95245260  0.91510021    -0.66400
O177        O  0.51372959  0.00556083  0.04405711    -0.78700
C178        C  0.56354729  0.05353245  0.98100767     0.84700
O179        O  0.53798217  0.04752862  0.99680026    -0.65900
Ni180      Ni  0.45872267  0.96599704  0.00369212     1.27400
Ni181      Ni  0.49449592  0.97984854  0.92017319     1.26100
H182        H  0.50345734  0.03385076  0.92302818     0.39300
O183        O  0.58373268  0.95866633  0.45058653    -0.80700
O184        O  0.47640032  0.04718456  0.49681810    -0.65400
O185        O  0.52479775  0.97504939  0.47724053    -1.12000
C186        C  0.50572979  0.99791821  0.34126701     1.06200
O187        O  0.44269941  0.03893794  0.44919823    -0.78600
O188        O  0.44815036  0.98663019  0.40646366    -0.66100
Ni189      Ni  0.56409304  0.96944165  0.50007888     1.34900
C190        C  0.45836787  0.95955624  0.41340392     0.85000
O191        O  0.50226907  0.00447848  0.54463951    -0.79100
O192        O  0.54758967  0.97921951  0.55144168    -0.89400
C193        C  0.45062305  0.05230027  0.48067801     0.84500
O194        O  0.57844650  0.00996255  0.49377723    -0.67600
O195        O  0.48514312  0.01681677  0.35310783    -0.86900
C196        C  0.56501599  0.03596626  0.49539584     0.85400
C197        C  0.52337211  0.99193170  0.56578081     1.06900
H198        H  0.51689987  0.03205030  0.42441395     0.38700
O199        O  0.50270452  0.01621265  0.43118720    -1.09500
O200        O  0.48651947  0.95332684  0.42069009    -0.66200
Ni201      Ni  0.52337184  0.97752010  0.42097484     1.26300
O202        O  0.53600712  0.03932037  0.49350043    -0.66400
O203        O  0.52183256  0.98095975  0.36430279    -0.78700
C204        C  0.57442902  0.93881779  0.42649661     0.84700
O205        O  0.54682180  0.93977718  0.41480572    -0.65900
Ni206      Ni  0.46591267  0.02634590  0.40301766     1.27400
Ni207      Ni  0.50184486  0.01163980  0.48812070     1.26100
H208        H  0.51275554  0.95796311  0.48607286     0.39300
O209        O  0.81649320  0.79630476  0.36921635    -0.80700
O210        O  0.70944612  0.70260370  0.39983750    -0.65400
O211        O  0.78403086  0.74312436  0.38004948    -1.12000
C212        C  0.76181727  0.72694290  0.24553038     1.06200
O213        O  0.71404912  0.66829186  0.35163622    -0.78600
O214        O  0.77352403  0.67022024  0.32652818    -0.66100
Ni215      Ni  0.78979525  0.78021475  0.40897720     1.34900
C216        C  0.79990249  0.68129837  0.32176132     0.85000
O217        O  0.75293644  0.72082981  0.44676526    -0.79100
O218        O  0.76622538  0.76887439  0.45513158    -0.89400
C219        C  0.70199524  0.67789175  0.38370832     0.84500
O220        O  0.75461728  0.79949119  0.38548871    -0.67600
O221        O  0.75412998  0.70105735  0.25931997    -0.86900
C222        C  0.72753169  0.78962227  0.38811580     0.85400
C223        C  0.75775385  0.74336413  0.46897406     1.06900
H224        H  0.72364457  0.73854242  0.32796997     0.38700
O225        O  0.74091810  0.72521657  0.33453067    -1.09500
O226        O  0.80390785  0.70987053  0.31584113    -0.66200
Ni227      Ni  0.77771638  0.74639852  0.32336168     1.26300
O228        O  0.72195409  0.76139883  0.39505391    -0.66400
O229        O  0.76936280  0.74895840  0.26757658    -0.78700
C230        C  0.82548082  0.78991897  0.33436443     0.84700
O231        O  0.81365649  0.76943440  0.31334185    -0.65900
Ni232      Ni  0.73561847  0.68712235  0.30803505     1.27400
Ni233      Ni  0.74638342  0.72333494  0.39071366     1.26100
H234        H  0.80082688  0.72907400  0.38587966     0.39300
O235        O  0.78435846  0.80888037  0.85879456    -0.80700
O236        O  0.68894094  0.70795858  0.90061367    -0.65400
O237        O  0.76325291  0.75058749  0.88058217    -1.12000
C238        C  0.74045255  0.73097802  0.74547474     1.06200
O239        O  0.70336350  0.67145172  0.85899923    -0.78600
O240        O  0.75519082  0.67433287  0.81636949    -0.66100
Ni241      Ni  0.77103632  0.78828884  0.90625693     1.34900
C242        C  0.78147853  0.68561557  0.81935028     0.85000
O243        O  0.73161458  0.72998197  0.94856042    -0.79100
O244        O  0.75964418  0.77174993  0.95695677    -0.89400
C245        C  0.68665312  0.68100385  0.88749257     0.84500
O246        O  0.73150177  0.80642883  0.89943463    -0.67600
O247        O  0.72553217  0.70846286  0.75912456    -0.86900
C248        C  0.70483868  0.79580627  0.89799050     0.85400
C249        C  0.74537601  0.74881191  0.97042166     1.06900
H250        H  0.70533819  0.74412965  0.82780470     0.38700
O251        O  0.72204719  0.73041749  0.83538011    -1.09500
O252        O  0.78574101  0.71425253  0.82176472    -0.66200
Ni253      Ni  0.75954180  0.75071762  0.82389855     1.26300
O254        O  0.69973151  0.76724022  0.89550736    -0.66400
O255        O  0.75409507  0.74999343  0.76729257    -0.78700
C256        C  0.80108767  0.79879029  0.83071934     0.84700
O257        O  0.79645786  0.77296328  0.81517505    -0.65900
Ni258      Ni  0.71515543  0.69201272  0.81051035     1.27400
Ni259      Ni  0.72572725  0.73032646  0.89202482     1.26100
H260        H  0.77979660  0.73663898  0.88809186     0.39300
O261        O  0.71581707  0.17258732  0.12980023    -0.80700
O262        O  0.81112127  0.27439244  0.17107427    -0.65400
O263        O  0.73822870  0.23112956  0.14904281    -1.12000
C264        C  0.75784333  0.24926153  0.01456972     1.06200
O265        O  0.81434600  0.30251165  0.11557594    -0.78600
O266        O  0.75396584  0.30546689  0.09514133    -0.66100
Ni267      Ni  0.72945840  0.19365463  0.17630786     1.34900
C268        C  0.72676545  0.29600245  0.09321529     0.85000
O269        O  0.76629204  0.25363628  0.21643593    -0.79100
O270        O  0.74028485  0.21053044  0.22644457    -0.89400
C271        C  0.82256552  0.29598732  0.15075707     0.84500
O272        O  0.76914796  0.17528850  0.17001298    -0.67600
O273        O  0.76820922  0.27411255  0.02741461    -0.86900
C274        C  0.79567002  0.18641793  0.17039545     0.85400
C275        C  0.75317735  0.23431392  0.23898262     1.06900
H276        H  0.79891568  0.23437320  0.09875214     0.38700
O277        O  0.78227367  0.24877189  0.10405951    -1.09500
O278        O  0.72059139  0.26783607  0.08792572    -0.66200
Ni279      Ni  0.74441775  0.22945912  0.09320429     1.26300
O280        O  0.80044707  0.21508702  0.16887231    -0.66400
O281        O  0.75150886  0.22712696  0.03739861    -0.78700
C282        C  0.70217771  0.18270440  0.09901431     0.84700
O283        O  0.70733143  0.20889631  0.08444068    -0.65900
Ni284      Ni  0.78977302  0.28574746  0.07453522     1.27400
Ni285      Ni  0.77508111  0.25171159  0.16067766     1.26100
H286        H  0.72121924  0.24519041  0.15483725     0.39300
O287        O  0.70159618  0.17849032  0.62571763    -0.80700
O288        O  0.79927825  0.27461097  0.66980762    -0.65400
O289        O  0.72345095  0.23616338  0.64922505    -1.12000
C290        C  0.74858568  0.25539579  0.51411098     1.06200
O291        O  0.79252034  0.31116567  0.62417393    -0.78600
O292        O  0.73842152  0.31274666  0.58511561    -0.66100
Ni293      Ni  0.71428279  0.19786480  0.67422519     1.34900
C294        C  0.71108186  0.30361677  0.58740071     0.85000
O295        O  0.75503690  0.25392112  0.71689774    -0.79100
O296        O  0.72534347  0.21309049  0.72567022    -0.89400
C297        C  0.80643749  0.29996337  0.65410141     0.84500
O298        O  0.75338561  0.17828332  0.66802305    -0.67600
O299        O  0.76453061  0.27697632  0.52712934    -0.86900
C300        C  0.78033473  0.18824690  0.66619625     0.85400
C301        C  0.74075870  0.23513080  0.73898545     1.06900
H302        H  0.78223950  0.23968755  0.59690003     0.38700
O303        O  0.76650067  0.25458428  0.60398123    -1.09500
O304        O  0.70440590  0.27535252  0.58973460    -0.66200
Ni305      Ni  0.72780473  0.23681517  0.59276498     1.26300
O306        O  0.78606280  0.21667396  0.66423811    -0.66400
O307        O  0.73374949  0.23721716  0.53634078    -0.78700
C308        C  0.68666251  0.18929420  0.59626411     0.84700
O309        O  0.68983973  0.21671331  0.58442485    -0.65900
Ni310      Ni  0.77696014  0.29198406  0.57755560     1.27400
Ni311      Ni  0.76166982  0.25445642  0.66062989     1.26100
H312        H  0.70753395  0.25035705  0.65667180     0.39300
O313        O  0.43919707  0.54568532  0.04279272    -0.80700
O314        O  0.54285025  0.44251022  0.07796539    -0.65400
O315        O  0.49569901  0.51634972  0.05884632    -1.12000
C316        C  0.50807527  0.48329718  0.92411009     1.06200
O317        O  0.57550184  0.45832086  0.03249220    -0.78600
O318        O  0.56633423  0.50131814  0.97469818    -0.66100
Ni319      Ni  0.45735222  0.52167655  0.08556389     1.34900
C320        C  0.55693930  0.52853387  0.98137314     0.85000
O321        O  0.52009477  0.48689781  0.12579199    -0.79100
O322        O  0.47093525  0.50062104  0.13335480    -0.89400
C323        C  0.56903851  0.44073955  0.06144886     0.84500
O324        O  0.44208516  0.48461536  0.06462166    -0.67600
O325        O  0.52799545  0.46378742  0.93687584    -0.86900
C326        C  0.45378638  0.45793202  0.07001228     0.85400
C327        C  0.49680552  0.49228461  0.14753052     1.06900
H328        H  0.50078789  0.45691109  0.00980113     0.38700
O329        O  0.51511435  0.47292956  0.01448363    -1.09500
O330        O  0.53083933  0.53475685  0.99648868    -0.66200
Ni331      Ni  0.49464395  0.51041869  0.00231031     1.26300
O332        O  0.48214262  0.45344854  0.07798480    -0.66400
O333        O  0.49452598  0.50320490  0.94600488    -0.78700
C334        C  0.44794036  0.55624091  0.00935289     0.84700
O335        O  0.47216929  0.54715246  0.99194271    -0.65900
Ni336      Ni  0.55074594  0.46157522  0.98546606     1.27400
Ni337      Ni  0.51800459  0.47898980  0.07014187     1.26100
H338        H  0.50830371  0.53346349  0.06508991     0.39300
O339        O  0.43335214  0.46265163  0.53947408    -0.80700
O340        O  0.53593006  0.54506973  0.49069781    -0.65400
O341        O  0.49186885  0.47363571  0.51386605    -1.12000
C342        C  0.50892925  0.49610294  0.64897674     1.06200
O343        O  0.56947769  0.53977876  0.54000306    -0.78600
O344        O  0.56745584  0.48471245  0.57875310    -0.66100
Ni345      Ni  0.45386252  0.46676969  0.48943021     1.34900
C346        C  0.55714772  0.45781669  0.57623905     0.85000
O347        O  0.51254991  0.50189273  0.44489741    -0.79100
O348        O  0.47232684  0.47090618  0.43811920    -0.89400
C349        C  0.56096720  0.55134653  0.50694512     0.84500
O350        O  0.43779698  0.50750974  0.48553073    -0.67600
O351        O  0.53131112  0.51174760  0.63671783    -0.86900
C352        C  0.44933650  0.53369073  0.48802091     0.85400
C353        C  0.49465065  0.48590576  0.42395114     1.06900
H354        H  0.49730180  0.53191466  0.56422203     0.38700
O355        O  0.51164448  0.51540672  0.55822310    -1.09500
O356        O  0.52863778  0.45234049  0.57375367    -0.66200
Ni357      Ni  0.49143366  0.47772870  0.56995795     1.26300
O358        O  0.47742078  0.53735421  0.49571805    -0.66400
O359        O  0.49079602  0.48266498  0.62613919    -0.78700
C360        C  0.44127290  0.44228405  0.56460884     0.84700
O361        O  0.46840781  0.44126228  0.57771212    -0.65900
Ni362      Ni  0.54831135  0.52415230  0.58619726     1.27400
Ni363      Ni  0.51278287  0.50978454  0.50135244     1.26100
H364        H  0.50523344  0.45646499  0.50695499     0.39300
O365        O  0.08117046  0.54176503  0.26061024    -0.80700
O366        O  0.98228414  0.44679710  0.22955719    -0.65400
O367        O  0.02156465  0.52269322  0.24627430    -1.12000
C368        C  0.01053260  0.50131344  0.38222589     1.06200
O369        O  0.95167067  0.44812815  0.28253375    -0.78600
O370        O  0.95074815  0.50789873  0.30686638    -0.66100
Ni371      Ni  0.05624424  0.53355809  0.21525413     1.34900
C372        C  0.96019459  0.53518944  0.30781903     0.85000
O373        O  0.99870077  0.49154628  0.18075817    -0.79100
O374        O  0.03422142  0.52665146  0.16730145    -0.89400
C375        C  0.95960908  0.43710167  0.24921849     0.84500
O376        O  0.07590913  0.49419973  0.21177339    -0.67600
O377        O  0.98581813  0.48997489  0.37041880    -0.86900
C378        C  0.06715010  0.46713970  0.21809507     0.85400
C379        C  0.01288932  0.50914472  0.15687876     1.06900
H380        H  0.02197994  0.46291590  0.29900252     0.38700
O381        O  0.00722286  0.47921655  0.29351791    -1.09500
O382        O  0.98850510  0.54160785  0.31018981    -0.66200
Ni383      Ni  0.02648316  0.51788797  0.30224286     1.26300
O384        O  0.04006299  0.46091926  0.22884055    -0.66400
O385        O  0.03086757  0.51135164  0.35858239    -0.78700
C386        C  0.07395482  0.55864462  0.28984588     0.84700
O387        O  0.04823481  0.55581812  0.30729008    -0.65900
Ni388      Ni  0.97105430  0.47093836  0.32362060     1.27400
Ni389      Ni  0.00265691  0.48456331  0.23699956     1.26100
H390        H  0.00626284  0.53863330  0.24131518     0.39300
O391        O  0.06740209  0.53923347  0.77691212    -0.80700
O392        O  0.97054623  0.44722541  0.72950970    -0.65400
O393        O  0.01102632  0.52246173  0.74719789    -1.12000
C394        C  0.98730049  0.50214620  0.88279191     1.06200
O395        O  0.93298235  0.45965083  0.77133190    -0.78600
O396        O  0.93237759  0.51166904  0.81314858    -0.66100
Ni397      Ni  0.05056837  0.52970334  0.72604040     1.34900
C398        C  0.94121901  0.53872825  0.80659832     0.85000
O399        O  0.99715852  0.48846336  0.68017307    -0.79100
O400        O  0.03659910  0.52071198  0.67378652    -0.89400
C401        C  0.94413580  0.44272903  0.74418151     0.84500
O402        O  0.06812599  0.48957049  0.73052227    -0.67600
O403        O  0.96762036  0.48364757  0.87020698    -0.86900
C404        C  0.05724808  0.46312294  0.73445483     0.85400
C405        C  0.01627242  0.50370034  0.65926147     1.06900
H406        H  0.00422674  0.46712012  0.80338872     0.38700
O407        O  0.98961405  0.48248281  0.79407839    -1.09500
O408        O  0.96924918  0.54536077  0.80138623    -0.66200
Ni409      Ni  0.00741418  0.52140124  0.80359832     1.26300
O410        O  0.02885529  0.45845105  0.73889408    -0.66400
O411        O  0.00392063  0.51851970  0.86023465    -0.78700
C412        C  0.05634250  0.55992592  0.79930043     0.84700
O413        O  0.02834516  0.55946221  0.80961299    -0.65900
Ni414      Ni  0.95206366  0.47260052  0.81935126     1.27400
Ni415      Ni  0.99232613  0.48442676  0.73710341     1.26100
H416        H  0.99761827  0.53855788  0.73698523     0.39300
C417        C  0.02864788  0.50904020  0.55648516     0.30000
C418        C  0.04305290  0.51903635  0.52134293    -0.36400
C419        C  0.02972849  0.50994077  0.48566740     0.16000
C420        C  0.00409692  0.49221295  0.48504994     0.21800
C421        C  0.99004152  0.48188494  0.52003031    -0.34500
C422        C  0.00323937  0.49102201  0.55551714     0.15900
O423        O  0.03645631  0.51573033  0.59301679    -0.26500
C424        C  0.01579327  0.50182020  0.61568728     0.05700
C425        C  0.99464736  0.48591266  0.59392813    -0.31400
O426        O  0.99461503  0.48719956  0.44890018    -0.23200
C427        C  0.01432622  0.50171165  0.42561317    -0.03200
C428        C  0.03693729  0.51623477  0.44680722    -0.17600
H429        H  0.06288058  0.53333556  0.52181862     0.20400
H430        H  0.96982118  0.46813337  0.51955946     0.18700
H431        H  0.97553292  0.47291664  0.60478560     0.18700
H432        H  0.05545146  0.52979732  0.43538692     0.14500
C433        C  0.01031218  0.51857850  0.05396337     0.30000
C434        C  0.02067280  0.52945584  0.01717164    -0.36400
C435        C  0.00641877  0.51769800  0.98382419     0.16000
C436        C  0.98343381  0.49671113  0.98646082     0.21800
C437        C  0.97296998  0.48583648  0.02339014    -0.34500
C438        C  0.98735568  0.49756574  0.05687955     0.15900
O439        O  0.02140094  0.52576140  0.08866232    -0.26500
C440        C  0.00548824  0.50921111  0.11441915     0.05700
C441        C  0.98382400  0.49119322  0.09640078    -0.31400
O442        O  0.97368576  0.48851643  0.95132442    -0.23200
C443        C  0.99066348  0.50446927  0.92595697    -0.03200
C444        C  0.01143374  0.52302725  0.94452286    -0.17600
H445        H  0.03891704  0.54565236  0.01473111     0.20400
H446        H  0.95518497  0.46913646  0.02579375     0.18700
H447        H  0.96848078  0.47516188  0.11023493     0.18700
H448        H  0.02789408  0.53808010  0.93102427     0.14500
C449        C  0.50442242  0.47122439  0.82175867     0.30000
C450        C  0.51097430  0.45598225  0.78615832    -0.36400
C451        C  0.50604910  0.47302453  0.75119982     0.16000
C452        C  0.49570699  0.50314763  0.75120898     0.21800
C453        C  0.48845780  0.51816500  0.78681981    -0.34500
C454        C  0.49306732  0.50099128  0.82179796     0.15900
O455        O  0.50999072  0.46057354  0.85780448    -0.26500
C456        C  0.50161751  0.48360810  0.88134514     0.05700
C457        C  0.49062193  0.50925389  0.86057850    -0.31400
O458        O  0.49497295  0.51537985  0.71522305    -0.23200
C459        C  0.50445926  0.49259282  0.69193033    -0.03200
C460        C  0.51155211  0.46570886  0.71260459    -0.17600
H461        H  0.52026741  0.43279257  0.78578154     0.20400
H462        H  0.48071023  0.54188036  0.78729255     0.18700
H463        H  0.48396773  0.53145222  0.87223647     0.18700
H464        H  0.52060530  0.44431658  0.70094899     0.14500
C465        C  0.48554814  0.47970605  0.32161778     0.30000
C466        C  0.46877319  0.47499744  0.28717511    -0.36400
C467        C  0.48407454  0.48031698  0.25137767     0.16000
C468        C  0.51410229  0.48916479  0.24924918     0.21800
C469        C  0.53095383  0.49408163  0.28399673    -0.34500
C470        C  0.51536646  0.48925875  0.32012562     0.15900
O471        O  0.47508626  0.47690878  0.35802147    -0.26500
C472        C  0.49822189  0.48505846  0.38058910     0.05700
C473        C  0.52400198  0.49312278  0.35870876    -0.31400
O474        O  0.52335611  0.49359802  0.21220779    -0.23200
C475        C  0.49870507  0.48780459  0.19074758    -0.03200
C476        C  0.47370189  0.47951974  0.21363799    -0.17600
H477        H  0.44513231  0.46829161  0.28824943     0.20400
H478        H  0.55426303  0.50177028  0.28294291     0.18700
H479        H  0.54567333  0.50085433  0.36958123     0.18700
H480        H  0.45092187  0.47431667  0.20382001     0.14500
C481        C  0.89038485  0.38571668  0.72946005     0.30000
C482        C  0.86568178  0.36722401  0.73980961    -0.36400
C483        C  0.85546398  0.34766105  0.71022355     0.16000
C484        C  0.86829875  0.34689389  0.67274470     0.21800
C485        C  0.89347149  0.36487639  0.66269246    -0.34500
C486        C  0.90404215  0.38406175  0.69252791     0.15900
O487        O  0.90272529  0.40644256  0.75206112    -0.26500
C488        C  0.92495968  0.41795179  0.72969145     0.05700
C489        C  0.92699969  0.40475904  0.69233674    -0.31400
O490        O  0.85331398  0.32920356  0.64853967    -0.23200
C491        C  0.83105530  0.31789816  0.67101280    -0.03200
C492        C  0.83137545  0.32836793  0.70979067    -0.17600
H493        H  0.85476662  0.36849673  0.76865955     0.20400
H494        H  0.90361696  0.36448747  0.63334222     0.18700
H495        H  0.94247161  0.41026478  0.66827630     0.18700
H496        H  0.81503139  0.32403869  0.73329752     0.14500
C497        C  0.62291107  0.40971198  0.57935593     0.30000
C498        C  0.65445703  0.40322513  0.58081075    -0.36400
C499        C  0.66332754  0.37218545  0.58296662     0.16000
C500        C  0.64269448  0.34884866  0.58367961     0.21800
C501        C  0.61093057  0.35537374  0.58209419    -0.34500
C502        C  0.60197473  0.38663113  0.57988322     0.15900
O503        O  0.60988851  0.43725477  0.57765737    -0.26500
C504        C  0.58002647  0.43213177  0.57686912     0.05700
C505        C  0.57369851  0.40094532  0.57821449    -0.31400
O506        O  0.65638988  0.32140800  0.58578716    -0.23200
C507        C  0.68618264  0.32740599  0.58650561    -0.03200
C508        C  0.69164527  0.35865592  0.58470127    -0.17600
H509        H  0.67100883  0.42122017  0.58038545     0.20400
H510        H  0.59438095  0.33738440  0.58259374     0.18700
H511        H  0.55156753  0.39043030  0.57842351     0.18700
H512        H  0.71345085  0.36982485  0.58444919     0.14500
C513        C  0.73948968  0.22750954  0.84280083     0.30000
C514        C  0.73520922  0.21245600  0.87939276    -0.36400
C515        C  0.74268711  0.22900378  0.91331037     0.16000
C516        C  0.75350587  0.25837670  0.91127684     0.21800
C517        C  0.75779479  0.27339984  0.87473346    -0.34500
C518        C  0.75053851  0.25678988  0.84084878     0.15900
O519        O  0.73431223  0.21621938  0.80739933    -0.26500
C520        C  0.74232894  0.23846352  0.78239301     0.05700
C521        C  0.75269476  0.26424308  0.80157452    -0.31400
O522        O  0.75976420  0.26934999  0.94647857    -0.23200
C523        C  0.75297759  0.24674612  0.97153587    -0.03200
C524        C  0.74211082  0.22105523  0.95257918    -0.17600
H525        H  0.72693512  0.18934881  0.88125274     0.20400
H526        H  0.76656201  0.29631255  0.87284647     0.18700
H527        H  0.76066400  0.28533449  0.78847342     0.18700
H528        H  0.73533278  0.19954807  0.96574332     0.14500
C529        C  0.74216638  0.23125052  0.34179035     0.30000
C530        C  0.73117382  0.21915096  0.37770600    -0.36400
C531        C  0.73929915  0.23470347  0.41203795     0.16000
C532        C  0.75704149  0.26037056  0.41099515     0.21800
C533        C  0.76792064  0.27255358  0.37505785    -0.34500
C534        C  0.75978114  0.25700736  0.34071759     0.15900
O535        O  0.73762058  0.22011246  0.30627500    -0.26500
C536        C  0.75242026  0.23897625  0.28205043     0.05700
C537        C  0.76666422  0.26242760  0.30180231    -0.31400
O538        O  0.76236276  0.27094704  0.44661924    -0.23200
C539        C  0.74782344  0.25188282  0.47085575    -0.03200
C540        C  0.73297951  0.22886790  0.45100480    -0.17600
H541        H  0.71742767  0.19890922  0.37879904     0.20400
H542        H  0.78192443  0.29261447  0.37399512     0.18700
H543        H  0.78022985  0.28058554  0.28935206     0.18700
H544        H  0.71982454  0.21041230  0.46347422     0.14500
C545        C  0.90906399  0.37749634  0.23127077     0.30000
C546        C  0.88728638  0.35544133  0.24112763    -0.36400
C547        C  0.87368784  0.34066831  0.20914643     0.16000
C548        C  0.88076799  0.34753816  0.17019156     0.21800
C549        C  0.90286639  0.36919889  0.16036762    -0.34500
C550        C  0.91678403  0.38360916  0.19231265     0.15900
O551        O  0.92344515  0.39508340  0.25630431    -0.26500
C552        C  0.94098596  0.41239348  0.23317187     0.05700
C553        C  0.93794955  0.40606037  0.19304694    -0.31400
O554        O  0.86414635  0.33237106  0.14492868    -0.23200
C555        C  0.84643713  0.31509916  0.16781413    -0.03200
C556        C  0.85145139  0.31921075  0.20814287    -0.17600
H557        H  0.88099346  0.35054449  0.27158311     0.20400
H558        H  0.90843844  0.37480731  0.12987767     0.18700
H559        H  0.94871862  0.41731429  0.16805991     0.18700
H560        H  0.83961112  0.30885515  0.23295706     0.14500
C561        C  0.65798211  0.33978249  0.09707011     0.30000
C562        C  0.62618021  0.34559331  0.09901609    -0.36400
C563        C  0.61628677  0.37600482  0.09131443     0.16000
C564        C  0.63635276  0.39885446  0.08174531     0.21800
C565        C  0.66799877  0.39323788  0.08075814    -0.34500
C566        C  0.67782725  0.36311143  0.08895743     0.15900
O567        O  0.67231765  0.31280911  0.10047455    -0.26500
C568        C  0.70170865  0.31923596  0.09504771     0.05700
C569        C  0.70635316  0.35019424  0.08805969    -0.31400
O570        O  0.62232083  0.42475113  0.07158801    -0.23200
C571        C  0.59278819  0.41885512  0.07547746    -0.03200
C572        C  0.58757639  0.38892627  0.08799421    -0.17600
H573        H  0.61023736  0.32753119  0.10485045     0.20400
H574        H  0.68384050  0.41094144  0.07277832     0.18700
H575        H  0.72761653  0.36133999  0.08132733     0.18700
H576        H  0.56588254  0.37777717  0.09125636     0.14500
C577        C  0.89380468  0.60537917  0.81197219     0.30000
C578        C  0.88582767  0.63658289  0.81729685    -0.36400
C579        C  0.85425035  0.64407130  0.81799856     0.16000
C580        C  0.83223473  0.62228286  0.81389709     0.21800
C581        C  0.84014196  0.59131587  0.80885730    -0.34500
C582        C  0.87145658  0.58393909  0.80801289     0.15900
O583        O  0.92177271  0.59286278  0.81076659    -0.26500
C584        C  0.91700250  0.56305482  0.80597834     0.05700
C585        C  0.88611554  0.55641736  0.80409352    -0.31400
O586        O  0.80421196  0.63402190  0.81454116    -0.23200
C587        C  0.80794946  0.66388866  0.81910459    -0.03200
C588        C  0.83867345  0.67154222  0.82156647    -0.17600
H589        H  0.90296972  0.65378555  0.82053566     0.20400
H590        H  0.82299336  0.57410940  0.80561344     0.18700
H591        H  0.87588336  0.53426260  0.80110519     0.18700
H592        H  0.84809947  0.69403814  0.82476418     0.14500
C593        C  0.64589444  0.61657924  0.91662110     0.30000
C594        C  0.63928421  0.58546553  0.91615575    -0.36400
C595        C  0.61415599  0.57659884  0.93887665     0.16000
C596        C  0.59615984  0.59684723  0.96043220     0.21800
C597        C  0.60291617  0.62832715  0.96105853    -0.34500
C598        C  0.62859901  0.63726465  0.93848097     0.15900
O599        O  0.66822402  0.62938231  0.89678039    -0.26500
C600        C  0.66579727  0.65883809  0.90592424     0.05700
C601        C  0.64155321  0.66524003  0.93200741    -0.31400
O602        O  0.57332530  0.58301322  0.97890058    -0.23200
C603        C  0.57732221  0.55356454  0.96922693    -0.03200
C604        C  0.60234148  0.54850941  0.94437015    -0.17600
H605        H  0.65286331  0.56920390  0.89908666     0.20400
H606        H  0.58917126  0.64463310  0.97782368     0.18700
H607        H  0.63419244  0.68722767  0.94364517     0.18700
H608        H  0.61040236  0.52713635  0.93157666     0.14500
C609        C  0.73911655  0.72295798  0.64197153     0.30000
C610        C  0.73471920  0.70763520  0.60606027    -0.36400
C611        C  0.74281636  0.72362449  0.57136915     0.16000
C612        C  0.75422474  0.75276351  0.57209382     0.21800
C613        C  0.75866414  0.76803908  0.60796492    -0.34500
C614        C  0.75082040  0.75196981  0.64262909     0.15900
O615        O  0.73362115  0.71208514  0.67787516    -0.26500
C616        C  0.74209583  0.73429915  0.70193539     0.05700
C617        C  0.75302013  0.75970434  0.68161400    -0.31400
O618        O  0.76057400  0.76339256  0.53635638    -0.23200
C619        C  0.75327878  0.74080704  0.51224560    -0.03200
C620        C  0.74209315  0.71540058  0.53238477    -0.17600
H621        H  0.72589294  0.68473556  0.60526832     0.20400
H622        H  0.76790916  0.79076231  0.60878546     0.18700
H623        H  0.76149579  0.78065972  0.69378936     0.18700
H624        H  0.73473712  0.69402436  0.52013273     0.14500
C625        C  0.75527418  0.75399043  0.07295580     0.30000
C626        C  0.76448689  0.76799326  0.10802862    -0.36400
C627        C  0.76220476  0.75033319  0.14277629     0.16000
C628        C  0.75164302  0.72085362  0.14289201     0.21800
C629        C  0.74229636  0.70684599  0.10776433    -0.34500
C630        C  0.74443290  0.72461167  0.07297302     0.15900
O631        O  0.75626743  0.76620942  0.03718405    -0.26500
C632        C  0.74575018  0.74458548  0.01376669     0.05700
C633        C  0.73784452  0.71812867  0.03439955    -0.31400
O634        O  0.75096071  0.70872160  0.17880509    -0.23200
C635        C  0.76117395  0.73067594  0.20206786    -0.03200
C636        C  0.76856040  0.75714049  0.18123285    -0.17600
H637        H  0.77289493  0.79107274  0.10816595     0.20400
H638        H  0.73389063  0.68376447  0.10761991     0.18700
H639        H  0.72944657  0.69700977  0.02260215     0.18700
H640        H  0.77672908  0.77842743  0.19280522     0.14500
C641        C  0.87045717  0.64031455  0.31336947     0.30000
C642        C  0.90198808  0.63517605  0.30589482    -0.36400
C643        C  0.91257663  0.60436789  0.30739960     0.16000
C644        C  0.89327465  0.58051854  0.31521292     0.21800
C645        C  0.86210504  0.58563387  0.32276448    -0.34500
C646        C  0.85171153  0.61614838  0.32170988     0.15900
O647        O  0.85518043  0.66697341  0.31304489    -0.26500
C648        C  0.82640721  0.65948974  0.32155369     0.05700
C649        C  0.82316666  0.62819479  0.32730067    -0.31400
O650        O  0.90747655  0.55362438  0.31544530    -0.23200
C651        C  0.93652632  0.55989908  0.30803761    -0.03200
C652        C  0.94119507  0.59120284  0.30275310    -0.17600
H653        H  0.91715041  0.65379842  0.29946613     0.20400
H654        H  0.84694153  0.56700231  0.32917888     0.18700
H655        H  0.80248420  0.61594107  0.33372121     0.18700
H656        H  0.96247712  0.60251976  0.29675706     0.14500
C657        C  0.64380947  0.62830340  0.41141062     0.30000
C658        C  0.62016583  0.60767966  0.40581223    -0.36400
C659        C  0.60645030  0.59623082  0.44045383     0.16000
C660        C  0.61582762  0.60404964  0.47794712     0.21800
C661        C  0.63903217  0.62507014  0.48350968    -0.34500
C662        C  0.65230502  0.63695713  0.44893968     0.15900
O663        O  0.66021073  0.64141788  0.38334759    -0.26500
C664        C  0.67896301  0.65910584  0.40324842     0.05700
C665        C  0.67500320  0.65736394  0.44409502    -0.31400
O666        O  0.60101932  0.58943365  0.50617601    -0.23200
C667        C  0.58153054  0.57241344  0.48658820    -0.03200
C668        C  0.58364646  0.57587145  0.44560934    -0.17600
H669        H  0.61311567  0.60088615  0.37655994     0.20400
H670        H  0.64638334  0.63153004  0.51276640     0.18700
H671        H  0.68754701  0.66891641  0.46683970     0.18700
H672        H  0.57096621  0.56428227  0.42303126     0.14500
C673        C  0.67914820  0.85499012  0.38918623     0.30000
C674        C  0.67241136  0.88622205  0.39450327    -0.36400
C675        C  0.64143360  0.89446310  0.39918250     0.16000
C676        C  0.61831810  0.87359940  0.39814998     0.21800
C677        C  0.62509967  0.84215160  0.39277077    -0.34500
C678        C  0.65632170  0.83378185  0.38860181     0.15900
O679        O  0.70678778  0.84229208  0.38732728    -0.26500
C680        C  0.70194292  0.81238876  0.38573803     0.05700
C681        C  0.67089605  0.80570528  0.38630471    -0.31400
O682        O  0.59106301  0.88644744  0.40551406    -0.23200
C683        C  0.59702334  0.91586142  0.41148481    -0.03200
C684        C  0.62798563  0.92194637  0.40803369    -0.17600
H685        H  0.69024551  0.90285389  0.39639825     0.20400
H686        H  0.60741251  0.82528239  0.39326980     0.18700
H687        H  0.66066085  0.78341158  0.38680994     0.18700
H688        H  0.63912957  0.94339471  0.41303974     0.14500
C689        C  0.59874704  0.10617767  0.52009168     0.30000
C690        C  0.59995766  0.13695999  0.53240104    -0.36400
C691        C  0.62841710  0.14662360  0.54665541     0.16000
C692        C  0.65362497  0.12708990  0.54920246     0.21800
C693        C  0.65260484  0.09678268  0.53619128    -0.34500
C694        C  0.62451023  0.08737190  0.52148334     0.15900
O695        O  0.57416449  0.09130728  0.50881984    -0.26500
C696        C  0.58461592  0.06273159  0.50242757     0.05700
C697        C  0.61583676  0.05930935  0.50960532    -0.31400
O698        O  0.67715828  0.13973175  0.56623119    -0.23200
C699        C  0.66744407  0.16812813  0.57406740    -0.03200
C700        C  0.63727226  0.17386757  0.56236463    -0.17600
H701        H  0.57994860  0.15202994  0.53201352     0.20400
H702        H  0.67219858  0.08125557  0.53851082     0.18700
H703        H  0.62978410  0.03849603  0.50884434     0.18700
H704        H  0.62349271  0.19450118  0.56665169     0.14500
C705        C  0.50339902  0.99368231  0.66717294     0.30000
C706        C  0.48460123  0.99629813  0.70113619    -0.36400
C707        C  0.49942263  0.99256260  0.73791682     0.16000
C708        C  0.53055372  0.98708675  0.74077646     0.21800
C709        C  0.54909923  0.98400385  0.70711143    -0.34500
C710        C  0.53433423  0.98739805  0.67070084     0.15900
O711        O  0.49487546  0.99668963  0.62965952    -0.26500
C712        C  0.52080151  0.99193991  0.60933645     0.05700
C713        C  0.54589905  0.98602755  0.63347463    -0.31400
O714        O  0.54015217  0.98618192  0.77761144    -0.23200
C715        C  0.51490021  0.99059972  0.79907167    -0.03200
C716        C  0.48870375  0.99453293  0.77606407    -0.17600
H717        H  0.46029371  0.00119797  0.69906973     0.20400
H718        H  0.57350864  0.97967151  0.70918072     0.18700
H719        H  0.56943490  0.98152658  0.62475246     0.18700
H720        H  0.46554015  0.99951216  0.78593797     0.14500
C721        C  0.51352635  0.00676711  0.23855219     0.30000
C722        C  0.51688865  0.02266830  0.20247540    -0.36400
C723        C  0.51222916  0.00568843  0.16805352     0.16000
C724        C  0.50406308  0.97537217  0.16904593     0.21800
C725        C  0.50128152  0.95932726  0.20507978    -0.34500
C726        C  0.50670226  0.97608272  0.23945743     0.15900
O727        O  0.51503482  0.01852357  0.27435079    -0.26500
C728        C  0.50999733  0.99481875  0.29839133     0.05700
C729        C  0.50478611  0.96783856  0.27840175    -0.31400
O730        O  0.49876709  0.96456676  0.13343093    -0.23200
C731        C  0.50430382  0.98807032  0.10926583    -0.03200
C732        C  0.51288611  0.01420871  0.12913153    -0.17600
H733        H  0.52220139  0.04672059  0.20133301     0.20400
H734        H  0.49483279  0.93558394  0.20626681     0.18700
H735        H  0.49860975  0.94588129  0.29080718     0.18700
H736        H  0.51757094  0.03657694  0.11675091     0.14500
C737        C  0.59923970  0.88454223  0.91507085     0.30000
C738        C  0.60407704  0.85278427  0.90878292    -0.36400
C739        C  0.63490315  0.84225807  0.90675555     0.16000
C740        C  0.65891887  0.86182554  0.91071426     0.21800
C741        C  0.65413260  0.89308947  0.91752823    -0.34500
C742        C  0.62370164  0.90344707  0.91955236     0.15900
O743        O  0.57268477  0.90003217  0.91584496    -0.26500
C744        C  0.58058438  0.92908822  0.92117182     0.05700
C745        C  0.61202953  0.93225878  0.92384999    -0.31400
O746        O  0.68577158  0.84794424  0.90728141    -0.23200
C747        C  0.67949866  0.81879086  0.90108782    -0.03200
C748        C  0.64805615  0.81370544  0.90056503    -0.17600
H749        H  0.58524311  0.83752045  0.90504694     0.20400
H750        H  0.67298570  0.90845798  0.92045189     0.18700
H751        H  0.62462757  0.95310712  0.92687666     0.18700
H752        H  0.63667247  0.79227266  0.89650896     0.14500
C753        C  0.64613208  0.13108384  0.07253527     0.30000
C754        C  0.62289580  0.11002550  0.07912246    -0.36400
C755        C  0.60895600  0.09875215  0.04512631     0.16000
C756        C  0.61786411  0.10700871  0.00723669     0.21800
C757        C  0.64077523  0.12843009  0.00064708    -0.34500
C758        C  0.65418200  0.14028783  0.03467820     0.15900
O759        O  0.66219339  0.14446753  0.10003580    -0.26500
C760        C  0.68030206  0.16295581  0.07959093     0.05700
C761        C  0.67628764  0.16143364  0.03879461    -0.31400
O762        O  0.60282559  0.09248691  0.97975159    -0.23200
C763        C  0.58357992  0.07522492  0.00027508    -0.03200
C764        C  0.58620498  0.07829492  0.04109386    -0.17600
H765        H  0.61615102  0.10294897  0.10868950     0.20400
H766        H  0.64767038  0.13533965  0.97107110     0.18700
H767        H  0.68822315  0.17377601  0.01566554     0.18700
H768        H  0.57398669  0.06630265  0.06428298     0.14500
C769        C  0.14207989  0.66075942  0.82466558     0.30000
C770        C  0.11035676  0.65704016  0.81959170    -0.36400
C771        C  0.10013104  0.62662364  0.82027786     0.16000
C772        C  0.11994693  0.60181181  0.82515427     0.21800
C773        C  0.15131517  0.60552632  0.83061888    -0.34500
C774        C  0.16138844  0.63565999  0.83014323     0.15900
O775        O  0.15711282  0.68678220  0.82336289    -0.26500
C776        C  0.18635176  0.67797299  0.82817048     0.05700
C777        C  0.19013408  0.64642425  0.83250813    -0.31400
O778        O  0.10653712  0.57544730  0.82080559    -0.23200
C779        C  0.07744649  0.58302594  0.81380204    -0.03200
C780        C  0.07196192  0.61464724  0.81331452    -0.17600
H781        H  0.09490500  0.67637111  0.81437038     0.20400
H782        H  0.16701215  0.58610854  0.83366125     0.18700
H783        H  0.21122840  0.63320003  0.83593697     0.18700
H784        H  0.05102600  0.62692811  0.80553712     0.14500
C785        C  0.36641627  0.63907855  0.91620220     0.30000
C786        C  0.38599200  0.61353744  0.91070027    -0.36400
C787        C  0.40224510  0.60337093  0.94421067     0.16000
C788        C  0.39903386  0.61702953  0.98080183     0.21800
C789        C  0.38013520  0.64311497  0.98599910    -0.34500
C790        C  0.36424849  0.65358342  0.95233133     0.15900
O791        O  0.34780429  0.65137312  0.88956118    -0.26500
C792        C  0.33392776  0.67433996  0.90870008     0.05700
C793        C  0.34347060  0.67704865  0.94771159    -0.31400
O794        O  0.41470902  0.60238485  0.00870452    -0.23200
C795        C  0.42863773  0.57950180  0.98948853    -0.03200
C796        C  0.42195268  0.57908291  0.94927225    -0.17600
H797        H  0.38790602  0.60200029  0.88251359     0.20400
H798        H  0.37747288  0.65406508  0.01449509     0.18700
H799        H  0.33533858  0.69316313  0.96980349     0.18700
H800        H  0.42956587  0.56254665  0.92740763     0.14500
C801        C  0.35551618  0.84777561  0.89391195     0.30000
C802        C  0.38722446  0.85225732  0.89063172    -0.36400
C803        C  0.39697760  0.88220707  0.89761031     0.16000
C804        C  0.37682312  0.90582602  0.90734592     0.21800
C805        C  0.34533776  0.90151994  0.90972307    -0.34500
C806        C  0.33570202  0.87184925  0.90276248     0.15900
O807        O  0.34125129  0.82150052  0.89121505    -0.26500
C808        C  0.31202817  0.82917893  0.89836509     0.05700
C809        C  0.30739990  0.86019516  0.90553564    -0.31400
O810        O  0.39067630  0.93094821  0.91715189    -0.23200
C811        C  0.42018761  0.92379409  0.91312505    -0.03200
C812        C  0.42562162  0.89382988  0.90059781    -0.17600
H813        H  0.40321263  0.83355610  0.88458354     0.20400
H814        H  0.32952255  0.91979799  0.91816757     0.18700
H815        H  0.28625103  0.87229315  0.91290615     0.18700
H816        H  0.44738410  0.88172950  0.89749420     0.14500
C817        C  0.25283781  0.76907759  0.57745806     0.30000
C818        C  0.24202333  0.78193404  0.61296554    -0.36400
C819        C  0.24793276  0.76483595  0.64752434     0.16000
C820        C  0.26336805  0.73690939  0.64715978     0.21800
C821        C  0.27423412  0.72399378  0.61156206    -0.34500
C822        C  0.26844710  0.74123526  0.57692138     0.15900
O823        O  0.24974457  0.78130999  0.54185681    -0.26500
C824        C  0.26374602  0.76128421  0.51800059     0.05700
C825        C  0.27585203  0.73578928  0.53814266    -0.31400
O826        O  0.26664048  0.72509066  0.68304456    -0.23200
C827        C  0.25307676  0.74568297  0.70666083    -0.03200
C828        C  0.24105001  0.77093032  0.68616560    -0.17600
H829        H  0.22993480  0.80384433  0.61359045     0.20400
H830        H  0.28648903  0.70216999  0.61096864     0.18700
H831        H  0.28795335  0.71608015  0.52596813     0.18700
H832        H  0.22935175  0.79097811  0.69804717     0.14500
C833        C  0.27051025  0.73812942  0.14680313     0.30000
C834        C  0.27971899  0.72663296  0.10964399    -0.36400
C835        C  0.26655798  0.74116234  0.07623484     0.16000
C836        C  0.24581878  0.76536477  0.07920170     0.21800
C837        C  0.23672462  0.77690923  0.11629430    -0.34500
C838        C  0.24982150  0.76237749  0.14963854     0.15900
O839        O  0.27963012  0.72786482  0.18192300    -0.26500
C840        C  0.26462471  0.74583513  0.20762086     0.05700
C841        C  0.24575041  0.76770828  0.18910638    -0.31400
O842        O  0.23639916  0.77557575  0.04424942    -0.23200
C843        C  0.25120878  0.75768300  0.01834914    -0.03200
C844        C  0.27037282  0.73586881  0.03662751    -0.17600
H845        H  0.29593362  0.70763495  0.10696619     0.20400
H846        H  0.22048942  0.79588892  0.11897685     0.18700
H847        H  0.23099793  0.78489214  0.20278855     0.18700
H848        H  0.28513226  0.71879710  0.02272502     0.14500
C849        C  0.18003967  0.63724595  0.31869623     0.30000
C850        C  0.17319717  0.60720662  0.30845746    -0.36400
C851        C  0.14225711  0.59974944  0.30953157     0.16000
C852        C  0.11923155  0.62021533  0.32025763     0.21800
C853        C  0.12614035  0.65058952  0.33052505    -0.34500
C854        C  0.15737973  0.65822766  0.32912227     0.15900
O855        O  0.20748493  0.64899472  0.31798548    -0.26500
C856        C  0.20285135  0.67814022  0.32794582     0.05700
C857        C  0.17197890  0.68529087  0.33521640    -0.31400
O858        O  0.09165916  0.60831600  0.31702614    -0.23200
C859        C  0.09740062  0.57994006  0.30392327    -0.03200
C860        C  0.12848268  0.57363870  0.29877984    -0.17600
H861        H  0.19081845  0.59090124  0.29926207     0.20400
H862        H  0.10840386  0.66727312  0.33807156     0.18700
H863        H  0.16177682  0.70726111  0.34297559     0.18700
H864        H  0.13932097  0.55305669  0.28708661     0.14500
C865        C  0.41282645  0.60529294  0.46709220     0.30000
C866        C  0.40994474  0.63722408  0.46030062    -0.36400
C867        C  0.38210450  0.64794605  0.44349899     0.16000
C868        C  0.35909832  0.62839979  0.43376089     0.21800
C869        C  0.36172638  0.59688613  0.44120405    -0.34500
C870        C  0.38915181  0.58634742  0.45819097     0.15900
O871        O  0.43731728  0.58971960  0.48008573    -0.26500
C872        C  0.42882296  0.56053991  0.47977319     0.05700
C873        C  0.39902940  0.55735674  0.46660362    -0.31400
O874        O  0.33601489  0.64242622  0.41579939    -0.23200
C875        C  0.34370419  0.67164193  0.41430158    -0.03200
C876        C  0.37214251  0.67661453  0.43139034    -0.17600
H877        H  0.42834034  0.65248217  0.46666457     0.20400
H878        H  0.34385784  0.58145379  0.43323040     0.18700
H879        H  0.38685451  0.53643400  0.46201342     0.18700
H880        H  0.38424189  0.69786212  0.43291734     0.14500
C881        C  0.37424701  0.85349449  0.40323534     0.30000
C882        C  0.40590144  0.85886082  0.40646407    -0.36400
C883        C  0.41446583  0.88982999  0.40860660     0.16000
C884        C  0.39328828  0.91373244  0.40726003     0.21800
C885        C  0.36188977  0.90841903  0.40408708    -0.34500
C886        C  0.35341075  0.87768605  0.40227996     0.15900
O887        O  0.36079870  0.82651596  0.40178171    -0.26500
C888        C  0.33092155  0.83369671  0.39999307     0.05700
C889        C  0.32527340  0.86525446  0.40022393    -0.31400
O890        O  0.40591273  0.94081504  0.40923140    -0.23200
C891        C  0.43579015  0.93461306  0.41222681    -0.03200
C892        C  0.44248633  0.90312985  0.41202286    -0.17600
H893        H  0.42265135  0.84022715  0.40754537     0.20400
H894        H  0.34511920  0.92705409  0.40331505     0.18700
H895        H  0.30338036  0.87736274  0.39961899     0.18700
H896        H  0.46472333  0.89177038  0.41350242     0.14500
C897        C  0.13513364  0.35308622  0.70051513     0.30000
C898        C  0.10619320  0.35997228  0.71732905    -0.36400
C899        C  0.09896072  0.39129764  0.72274258     0.16000
C900        C  0.11910569  0.41398544  0.71280993     0.21800
C901        C  0.14778218  0.40716101  0.69616965    -0.34500
C902        C  0.15473143  0.37616421  0.69026162     0.15900
O903        O  0.14605701  0.32572802  0.69012205    -0.26500
C904        C  0.17276189  0.33173663  0.67275698     0.05700
C905        C  0.17918449  0.36268718  0.67209791    -0.31400
O906        O  0.10738036  0.44167137  0.71772997    -0.23200
C907        C  0.07915078  0.43710664  0.73084975    -0.03200
C908        C  0.07252317  0.40611855  0.73466974    -0.17600
H909        H  0.09006214  0.34230163  0.72428300     0.20400
H910        H  0.16316877  0.42494287  0.68697473     0.18700
H911        H  0.19867687  0.37376024  0.65884873     0.18700
H912        H  0.05100938  0.39608726  0.74296304     0.14500
C913        C  0.37465202  0.40216763  0.57869778     0.30000
C914        C  0.34358448  0.39744227  0.57297636    -0.36400
C915        C  0.33388528  0.36769576  0.57978887     0.16000
C916        C  0.35325860  0.34392308  0.59146996     0.21800
C917        C  0.38457366  0.34878884  0.59773698    -0.34500
C918        C  0.39440658  0.37885271  0.59094536     0.15900
O919        O  0.38866773  0.42759457  0.57029739    -0.26500
C920        C  0.41787293  0.42095442  0.57750218     0.05700
C921        C  0.42297661  0.39098710  0.59086550    -0.31400
O922        O  0.33897841  0.31763456  0.59451240    -0.23200
C923        C  0.31020918  0.32505108  0.58475871    -0.03200
C924        C  0.30588592  0.35586036  0.57540388    -0.17600
H925        H  0.32818779  0.41555216  0.56263370     0.20400
H926        H  0.40024890  0.33035046  0.60621178     0.18700
H927        H  0.44463184  0.37927670  0.59647555     0.18700
H928        H  0.28509113  0.36777167  0.56615405     0.14500
C929        C  0.36461792  0.13433533  0.56882345     0.30000
C930        C  0.38669609  0.11114922  0.57625744    -0.36400
C931        C  0.40149182  0.09876787  0.54284535     0.16000
C932        C  0.39440822  0.10795067  0.50464874     0.21800
C933        C  0.37258785  0.13146332  0.49723365    -0.34500
C934        C  0.35838362  0.14445069  0.53075231     0.15900
O935        O  0.34793722  0.14885427  0.59569708    -0.26500
C936        C  0.33124378  0.16901411  0.57473490     0.05700
C937        C  0.33685517  0.16748394  0.53413882    -0.31400
O938        O  0.41050739  0.09266900  0.47779583    -0.23200
C939        C  0.42858741  0.07393207  0.49910462    -0.03200
C940        C  0.42409036  0.07682107  0.53975822    -0.17600
H941        H  0.39206655  0.10341196  0.60605214     0.20400
H942        H  0.36719415  0.13919258  0.46744360     0.18700
H943        H  0.32603315  0.18077252  0.51062538     0.18700
H944        H  0.43545419  0.06421247  0.56345295     0.14500
C945        C  0.24653716  0.26272159  0.90735554     0.30000
C946        C  0.23256058  0.27326891  0.87222082    -0.36400
C947        C  0.24019848  0.25705076  0.83771455     0.16000
C948        C  0.26000384  0.23197397  0.83794220     0.21800
C949        C  0.27380108  0.22126802  0.87316741    -0.34500
C950        C  0.26642358  0.23771082  0.90762436     0.15900
O951        O  0.24296431  0.27483156  0.94273829    -0.26500
C952        C  0.26082365  0.25750083  0.96616583     0.05700
C953        C  0.27607338  0.23399135  0.94590810    -0.31400
O954        O  0.26496891  0.22104801  0.80212010    -0.23200
C955        C  0.24827180  0.23938774  0.77848371    -0.03200
C956        C  0.23220322  0.26216699  0.79906395    -0.17600
H957        H  0.21721745  0.29309013  0.87173472     0.20400
H958        H  0.28965145  0.20184577  0.87351693     0.18700
H959        H  0.29168433  0.21662207  0.95769520     0.18700
H960        H  0.21757658  0.28033583  0.78717290     0.14500
C961        C  0.24807255  0.25920489  0.33305086     0.30000
C962        C  0.23357666  0.27504571  0.36430994    -0.36400
C963        C  0.24142699  0.26527889  0.40286089     0.16000
C964        C  0.26219220  0.24164028  0.41024944     0.21800
C965        C  0.27673323  0.22586964  0.37900931    -0.34500
C966        C  0.26879751  0.23554363  0.34048894     0.15900
O967        O  0.24384151  0.26416516  0.29469086    -0.26500
C968        C  0.26207392  0.24334097  0.27729238     0.05700
C969        C  0.27814766  0.22495926  0.30442962    -0.31400
O970        O  0.26618705  0.23636546  0.44856930    -0.23200
C971        C  0.24766711  0.25685682  0.46607687    -0.03200
C972        C  0.23173270  0.27546386  0.43900431    -0.17600
H973        H  0.21720538  0.29358900  0.35896124     0.20400
H974        H  0.29301414  0.20724722  0.38435677     0.18700
H975        H  0.29421704  0.20631128  0.29841862     0.18700
H976        H  0.21553555  0.29398238  0.44511409     0.14500
C977        C  0.14959330  0.35925751  0.18813058     0.30000
C978        C  0.11954019  0.36564203  0.20143541    -0.36400
C979        C  0.11115143  0.39682079  0.20508043     0.16000
C980        C  0.13106557  0.42000657  0.19648311     0.21800
C981        C  0.16099448  0.41366020  0.18338898    -0.34500
C982        C  0.16923496  0.38265141  0.17942101     0.15900
O983        O  0.16184883  0.33194214  0.18025717    -0.26500
C984        C  0.18956474  0.33812307  0.16607027     0.05700
C985        C  0.19531134  0.36926915  0.16500385    -0.31400
O986        O  0.11834436  0.44746567  0.20050453    -0.23200
C987        C  0.08980916  0.44203238  0.21191484    -0.03200
C988        C  0.08398159  0.41087965  0.21527043    -0.17600
H989        H  0.10359164  0.34762902  0.20751705     0.20400
H990        H  0.17654571  0.43170921  0.17577524     0.18700
H991        H  0.21546196  0.38047608  0.15385877     0.18700
H992        H  0.06269871  0.40021698  0.22317832     0.14500
C993        C  0.39225013  0.40835810  0.06132197     0.30000
C994        C  0.36177925  0.40127215  0.05417083    -0.36400
C995        C  0.35319260  0.37150262  0.06416111     0.16000
C996        C  0.37305464  0.34966169  0.07988632     0.21800
C997        C  0.40394496  0.35672811  0.08676017    -0.34500
C998        C  0.41261601  0.38687799  0.07689510     0.15900
O999        O  0.40429004  0.43547114  0.05610231    -0.26500
C1000       C  0.43301836  0.43170997  0.06817716     0.05700
C1001       C  0.43961164  0.40182140  0.08133767    -0.31400
O1002       O  0.35930311  0.32341270  0.08785161    -0.23200
C1003       C  0.33025702  0.32890017  0.07716049    -0.03200
C1004       C  0.32549465  0.35845170  0.06223648    -0.17600
H1005       H  0.34559235  0.41812775  0.04244501     0.20400
H1006       H  0.41990378  0.34015942  0.09959201     0.18700
H1007       H  0.46076617  0.39281522  0.09378877     0.18700
H1008       H  0.30437951  0.36899155  0.05166090     0.14500
C1009       C  0.39300007  0.08308403  0.03476613     0.30000
C1010       C  0.36481456  0.09044713  0.05263724    -0.36400
C1011       C  0.35826495  0.12165172  0.05816796     0.16000
C1012       C  0.37787283  0.14440459  0.04676752     0.21800
C1013       C  0.40633445  0.13697023  0.02889604    -0.34500
C1014       C  0.41302787  0.10550419  0.02346886     0.15900
O1015       O  0.40388787  0.05519984  0.02812803    -0.26500
C1016       C  0.43138276  0.05943566  0.01220095     0.05700
C1017       C  0.43838803  0.09035739  0.00865040    -0.31400
O1018       O  0.36710159  0.17211887  0.05609239    -0.23200
C1019       C  0.34038349  0.16674669  0.07388999    -0.03200
C1020       C  0.33390327  0.13577297  0.07588471    -0.17600
H1021       H  0.34923734  0.07295746  0.06223666     0.20400
H1022       H  0.42231522  0.15440535  0.02041643     0.18700
H1023       H  0.45934985  0.10015099  0.99776686     0.18700
H1024       H  0.31424969  0.12512504  0.08933278     0.14500
C1025       C  0.87127999  0.08482629  0.67309496     0.30000
C1026       C  0.83978216  0.09039947  0.66865627    -0.36400
C1027       C  0.82997978  0.12118662  0.66843409     0.16000
C1028       C  0.84968979  0.14510197  0.67226190     0.21800
C1029       C  0.88137979  0.13948836  0.67681794    -0.34500
C1030       C  0.89126969  0.10850339  0.67706334     0.15900
O1031       O  0.88516869  0.05769776  0.67358634    -0.26500
C1032       C  0.91461323  0.06374652  0.67798399     0.05700
C1033       C  0.91981576  0.09506825  0.68035489    -0.31400
O1034       O  0.83521283  0.17214666  0.67139915    -0.23200
C1035       C  0.80586676  0.16529174  0.66699920    -0.03200
C1036       C  0.80143559  0.13390985  0.66503352    -0.17600
H1037       H  0.82396551  0.07194363  0.66551579     0.20400
H1038       H  0.89719606  0.15794143  0.67991155     0.18700
H1039       H  0.94143903  0.10625502  0.68350012     0.18700
H1040       H  0.78012653  0.12213496  0.66189430     0.14500
C1041       C  0.85631379  0.85469137  0.81691897     0.30000
C1042       C  0.87290490  0.88038502  0.82759264    -0.36400
C1043       C  0.89313195  0.89161628  0.79888338     0.16000
C1044       C  0.89638761  0.87875016  0.76185327     0.21800
C1045       C  0.88020275  0.85258936  0.75142428    -0.34500
C1046       C  0.86022252  0.84104855  0.78046214     0.15900
O1047       O  0.83531803  0.84145038  0.83878243    -0.26500
C1048       C  0.82571030  0.81868897  0.81650069     0.05700
C1049       C  0.84056878  0.81710986  0.77984860    -0.31400
O1050       O  0.91462880  0.89455517  0.73850442    -0.23200
C1051       C  0.92369922  0.91735082  0.76120757    -0.03200
C1052       C  0.91116034  0.91664787  0.79913045    -0.17600
H1053       H  0.86975504  0.89126233  0.85606577     0.20400
H1054       H  0.88249462  0.84240738  0.72240598     0.18700
H1055       H  0.83676743  0.80133901  0.75594810     0.18700
H1056       H  0.91356083  0.93316321  0.82253815     0.14500
C1057       C  0.11639237  0.92121908  0.78458191     0.30000
C1058       C  0.14437095  0.91457087  0.80306816    -0.36400
C1059       C  0.15398511  0.88376891  0.80358508     0.16000
C1060       C  0.13756552  0.86081108  0.78663485     0.21800
C1061       C  0.10944067  0.86756013  0.76778061    -0.34500
C1062       C  0.09947412  0.89854669  0.76780254     0.15900
O1063       O  0.10253429  0.94829857  0.78306096    -0.26500
C1064       C  0.07610326  0.94326102  0.76531738     0.05700
C1065       C  0.07286816  0.91263822  0.75506330    -0.31400
O1066       O  0.15022888  0.83327649  0.79308455    -0.23200
C1067       C  0.17490106  0.83891194  0.81466184    -0.03200
C1068       C  0.17825987  0.86994255  0.82181978    -0.17600
H1069       H  0.15725782  0.93211579  0.81737639     0.20400
H1070       H  0.09577507  0.84979847  0.75529752     0.18700
H1071       H  0.05351118  0.90222370  0.74123889     0.18700
H1072       H  0.19548413  0.88067194  0.83948301     0.14500
C1073       C  0.11899409  0.09743093  0.65823673     0.30000
C1074       C  0.15073808  0.10024352  0.65574606    -0.36400
C1075       C  0.16135471  0.13010944  0.65329652     0.16000
C1076       C  0.14213310  0.15563936  0.65315218     0.21800
C1077       C  0.11016779  0.15278640  0.65485080    -0.34500
C1078       C  0.09944359  0.12272967  0.65728309     0.15900
O1079       O  0.10474064  0.07191929  0.66591512    -0.26500
C1080       C  0.07552873  0.08061138  0.66924309     0.05700
C1081       C  0.07069341  0.11200030  0.66380634    -0.31400
O1082       O  0.15732707  0.18140334  0.65372715    -0.23200
C1083       C  0.18657478  0.17208126  0.65416111    -0.03200
C1084       C  0.19035265  0.14040582  0.65376074    -0.17600
H1085       H  0.16616997  0.08053091  0.65764384     0.20400
H1086       H  0.09483668  0.17259174  0.65597584     0.18700
H1087       H  0.04970782  0.12522370  0.66815444     0.18700
H1088       H  0.21142450  0.12691062  0.65510476     0.20900
C1089       C  0.01593705  0.01374389  0.43318161     0.30000
C1090       C  0.02507678  0.02536389  0.46974447    -0.36400
C1091       C  0.00944576  0.01451036  0.50325493     0.16000
C1092       C  0.98629976  0.99373649  0.50098483     0.21800
C1093       C  0.97707469  0.98217013  0.46435984    -0.34500
C1094       C  0.99282279  0.99293649  0.43081779     0.15900
O1095       O  0.02777541  0.02047794  0.39822751    -0.26500
C1096       C  0.01212725  0.00373860  0.37304247     0.05700
C1097       C  0.99002575  0.98615152  0.39164848    -0.31400
O1098       O  0.97509492  0.98646238  0.53616052    -0.23200
C1099       C  0.99131057  0.00276583  0.56128192    -0.03200
C1100       C  0.01300168  0.02065628  0.54243297    -0.17600
H1101       H  0.04328558  0.04155703  0.47193440     0.20400
H1102       H  0.95906942  0.96574833  0.46220449     0.18700
H1103       H  0.97431721  0.97060340  0.37827137     0.18700
H1104       H  0.02914455  0.03580601  0.55571086     0.14500
C1105       C  0.01246480  0.01914329  0.93167918     0.30000
C1106       C  0.02454854  0.03099054  0.96668636    -0.36400
C1107       C  0.01427339  0.01770410  0.00222774     0.16000
C1108       C  0.99350223  0.99445839  0.00300939     0.21800
C1109       C  0.98151511  0.98258676  0.96808670    -0.34500
C1110       C  0.99176376  0.99584330  0.93262671     0.15900
O1111       O  0.01937530  0.02767695  0.89521981    -0.26500
C1112       C  0.00285979  0.00968407  0.87250078     0.05700
C1113       C  0.98517165  0.98941033  0.89418554    -0.31400
O1114       O  0.98649234  0.98575815  0.03926950    -0.23200
C1115       C  0.00298026  0.00350995  0.06222256    -0.03200
C1116       C  0.02087345  0.02384894  0.04085458    -0.17600
H1117       H  0.04084164  0.04921976  0.96620869     0.20400
H1118       H  0.96528360  0.96430110  0.96857226     0.18700
H1119       H  0.97032586  0.97199436  0.88323191     0.18700
H1120       H  0.03591289  0.04098091  0.05210078     0.14500
C1121       C  0.84501687  0.12229930  0.17906062     0.30000
C1122       C  0.85224086  0.09096072  0.18165250    -0.36400
C1123       C  0.88337365  0.08302033  0.18365847     0.16000
C1124       C  0.90611605  0.10432362  0.18340403     0.21800
C1125       C  0.89881840  0.13591240  0.18119645    -0.34500
C1126       C  0.86746095  0.14393265  0.17888078     0.15900
O1127       O  0.81730768  0.13446413  0.17587483    -0.26500
C1128       C  0.82171880  0.16442182  0.17352164     0.05700
C1129       C  0.85253926  0.17175978  0.17532476    -0.31400
O1130       O  0.93383914  0.09135060  0.18373824    -0.23200
C1131       C  0.92854851  0.06140304  0.18413310    -0.03200
C1132       C  0.89754780  0.05506427  0.18428675    -0.17600
H1133       H  0.83476213  0.07387341  0.18134221     0.20400
H1134       H  0.91632577  0.15296614  0.18051165     0.18700
H1135       H  0.86242691  0.19420805  0.17411186     0.18700
H1136       H  0.88696440  0.03294176  0.18373847     0.14500
C1137       C  0.92079761  0.87786568  0.29117990     0.30000
C1138       C  0.91294109  0.85844238  0.32286299    -0.36400
C1139       C  0.88869371  0.83873557  0.31600288     0.16000
C1140       C  0.87361039  0.83767845  0.28021213     0.21800
C1141       C  0.88143849  0.85708288  0.24863120    -0.34500
C1142       C  0.90518914  0.87719932  0.25576250     0.15900
O1143       O  0.94157939  0.89932488  0.29158967    -0.26500
C1144       C  0.93881830  0.91274739  0.25613265     0.05700
C1145       C  0.91654800  0.89992436  0.23273633    -0.31400
O1146       O  0.85041504  0.81894285  0.28107438    -0.23200
C1147       C  0.85044410  0.80807097  0.31801496    -0.03200
C1148       C  0.87370863  0.81959769  0.34106846    -0.17600
H1149       H  0.92416266  0.85941252  0.35130688     0.20400
H1150       H  0.86907551  0.85732228  0.22093698     0.18700
H1151       H  0.90948085  0.90671796  0.20316007     0.18700
H1152       H  0.87796122  0.81557074  0.37229738     0.14500
C1153       C  0.15113969  0.85811763  0.28849444     0.30000
C1154       C  0.12119592  0.86394034  0.27467345    -0.36400
C1155       C  0.11274108  0.89494129  0.26839007     0.16000
C1156       C  0.13261719  0.91839599  0.27475825     0.21800
C1157       C  0.16248376  0.91258575  0.28803415    -0.34500
C1158       C  0.17067853  0.88183352  0.29495547     0.15900
O1159       O  0.16313979  0.83126186  0.29960141    -0.26500
C1160       C  0.19053174  0.83811243  0.31364469     0.05700
C1161       C  0.19634863  0.86920289  0.31140572    -0.31400
O1162       O  0.11951428  0.94567217  0.27050249    -0.23200
C1163       C  0.09072310  0.93996008  0.26130270    -0.03200
C1164       C  0.08516105  0.90870585  0.25925496    -0.17600
H1165       H  0.10519558  0.84573407  0.27086368     0.20400
H1166       H  0.17779776  0.93093849  0.29444541     0.18700
H1167       H  0.21622062  0.88092345  0.32182229     0.18700
H1168       H  0.06361908  0.89780758  0.25415613     0.14500
C1169       C  0.15410754  0.15928834  0.15563581     0.30000
C1170       C  0.12210132  0.15516182  0.15577468    -0.36400
C1171       C  0.11224153  0.12483297  0.16177866     0.16000
C1172       C  0.13263805  0.10061345  0.16752731     0.21800
C1173       C  0.16424028  0.10462433  0.16675314    -0.34500
C1174       C  0.17393652  0.13454625  0.16061644     0.15900
O1175       O  0.16878770  0.18555674  0.15290811    -0.26500
C1176       C  0.19831906  0.17714710  0.15606069     0.05700
C1177       C  0.20255631  0.14567111  0.16071075    -0.31400
O1178       O  0.11915424  0.07486538  0.17646680    -0.23200
C1179       C  0.08946312  0.08202076  0.17595020    -0.03200
C1180       C  0.08362193  0.11287293  0.16667072    -0.17600
H1181       H  0.10605896  0.17428053  0.15267343     0.20400
H1182       H  0.18025152  0.08575100  0.17202894     0.18700
H1183       H  0.22379052  0.13282728  0.16495416     0.18700
H1184       H  0.06179671  0.12509050  0.16663887     0.14500
loop_ 
_geom_bond_atom_site_label_1 
_geom_bond_atom_site_label_2 
_geom_bond_distance 
_geom_bond_site_symmetry_2 
_ccdc_geom_bond_type 
O1           Ni7   1.919       .  S
O1           C22   1.268       .  A
O2          Ni25   1.936       .  S
O2           C11   1.274       .  A
O3           Ni7   1.903   1_455  S
O3          Ni25   1.922   1_565  S
O3          Ni19   1.917       .  S
O3           H26   0.967       .  S
C4           O21   1.279   1_545  A
C4           O13   1.278       .  A
C4         C1096   1.472       .  S
O5          Ni24   1.927       .  S
O5           C11   1.270       .  A
O6          Ni24   1.906   1_565  S
O6            C8   1.267       .  A
Ni7          O10   1.910       .  S
Ni7          O12   1.902   1_565  S
C8           O18   1.272       .  A
C8         C1163   1.477       .  S
O9          Ni25   1.928       .  S
O9           C15   1.278       .  A
O10          C15   1.273   1_665  A
C11        C1179   1.478       .  S
O12          C14   1.269       .  A
O13         Ni24   1.926       .  S
C14          O20   1.276       .  A
C14        C1131   1.478       .  S
C15        C1115   1.468       .  S
H16          O17   0.968       .  S
O17         Ni25   1.912       .  S
O17         Ni19   1.904   1_545  S
O17         Ni24   1.897       .  S
O18         Ni19   1.936       .  S
Ni19         O23   1.918   1_455  S
Ni19         O21   1.924       .  S
O20         Ni25   1.945   1_655  S
C22          O23   1.268       .  A
C22        C1144   1.470       .  S
O27         Ni33   1.928       .  S
O27          C48   1.272       .  A
O28         Ni51   1.923       .  S
O28          C37   1.270       .  A
O29         Ni33   1.908       .  S
O29         Ni51   1.914   1_665  S
O29         Ni45   1.925       .  S
O29          H52   0.967   1_655  S
C30          O47   1.284   1_445  A
C30          O39   1.276       .  A
C30        C1112   1.471       .  S
O31         Ni50   1.922       .  S
O31          C37   1.268       .  A
O32         Ni50   1.905   1_565  S
O32          C34   1.267       .  A
Ni33         O36   1.927       .  S
Ni33         O38   1.912   1_565  S
C34          O44   1.273       .  A
C34        C1064   1.478       .  S
O35         Ni51   1.916       .  S
O35          C41   1.274   1_455  A
O36          C41   1.274   1_565  A
C37        C1080   1.466       .  S
O38          C40   1.271       .  A
O39         Ni50   1.913       .  S
C40          O46   1.277       .  A
C40        C1032   1.481       .  S
C41        C1099   1.473       .  S
H42          O43   0.968   1_655  S
O43         Ni51   1.906       .  S
O43         Ni45   1.898   1_445  S
O43         Ni50   1.896       .  S
O44         Ni45   1.942   1_455  S
Ni45         O49   1.915       .  S
Ni45         O47   1.939       .  S
O46         Ni51   1.945   1_655  S
C48          O49   1.271       .  A
C48        C1051   1.468       .  S
O53         Ni59   1.931       .  S
O53          C74   1.273       .  A
O54         Ni77   1.927       .  S
O54          C63   1.272       .  A
O55         Ni59   1.891       .  S
O55         Ni77   1.906       .  S
O55         Ni71   1.909       .  S
O55          H78   0.966       .  S
C56          O73   1.278       .  A
C56          O65   1.279       .  A
C56         C968   1.479       .  S
O57         Ni76   1.932       .  S
O57          C63   1.273       .  A
O58         Ni76   1.906       .  S
O58          C60   1.269       .  A
Ni59         O62   1.920       .  S
Ni59         O64   1.903       .  S
C60          O70   1.275       .  A
C60        C1176   1.488       .  S
O61         Ni77   1.938       .  S
O61          C67   1.283       .  A
O62          C67   1.278       .  A
C63        C1019   1.480       .  S
O64          C66   1.269       .  A
O65         Ni76   1.930       .  S
C66          O72   1.278       .  A
C66        C1003   1.491       .  S
C67         C952   1.475   1_554  S
H68          O69   0.966       .  S
O69         Ni77   1.919       .  S
O69         Ni71   1.915       .  S
O69         Ni76   1.900       .  S
O70         Ni71   1.952       .  S
Ni71         O75   1.922       .  S
Ni71         O73   1.928       .  S
O72         Ni77   1.959       .  S
C74          O75   1.271       .  A
C74         C984   1.475       .  S
O79         Ni85   1.929       .  S
O79         C100   1.271       .  A
O80        Ni103   1.908       .  S
O80          C89   1.269       .  A
O81         Ni85   1.906       .  S
O81        Ni103   1.906       .  S
O81         Ni97   1.914       .  S
O81         H104   0.966       .  S
C82          O99   1.275       .  A
C82          O91   1.272       .  A
C82         C955   1.476       .  S
O83        Ni102   1.928       .  S
O83          C89   1.271       .  A
O84        Ni102   1.906       .  S
O84          C86   1.271       .  A
Ni85         O88   1.926       .  S
Ni85         O90   1.898       .  S
C86          O96   1.274       .  A
C86        C1083   1.473       .  S
O87        Ni103   1.931       .  S
O87          C93   1.278       .  A
O88          C93   1.277       .  A
C89         C936   1.469       .  S
O90          C92   1.267       .  A
O91        Ni102   1.923       .  S
C92          O98   1.271       .  A
C92         C923   1.471       .  S
C93         C971   1.480       .  S
H94          O95   0.966       .  S
O95        Ni103   1.925       .  S
O95         Ni97   1.919       .  S
O95        Ni102   1.912       .  S
O96         Ni97   1.934       .  S
Ni97        O101   1.919       .  S
Ni97         O99   1.924       .  S
O98        Ni103   1.934       .  S
C100        O101   1.268       .  A
C100        C904   1.472       .  S
O105       Ni111   1.940       .  S
O105        C126   1.275       .  A
O106       Ni129   1.919       .  S
O106        C115   1.269       .  A
O107       Ni111   1.906       .  S
O107       Ni129   1.913       .  S
O107       Ni123   1.917       .  S
O107        H130   0.967       .  S
C108        O125   1.280       .  A
C108        O117   1.278       .  A
C108        C824   1.472       .  S
O109       Ni128   1.934       .  S
O109        C115   1.273       .  A
O110       Ni128   1.907       .  S
O110        C112   1.269       .  A
Ni111       O114   1.937       .  S
Ni111       O116   1.912       .  S
C112        O122   1.279       .  A
C112        C888   1.495       .  S
O113       Ni129   1.921       .  S
O113        C119   1.278       .  A
O114        C119   1.279       .  A
C115       C1160   1.475       .  S
O116        C118   1.269       .  A
O117       Ni128   1.923       .  S
C118        O124   1.275       .  A
C118        C856   1.486       .  S
C119        C840   1.480       .  S
H120        O121   0.968       .  S
O121       Ni129   1.906       .  S
O121       Ni123   1.907       .  S
O121       Ni128   1.896       .  S
O122       Ni123   1.962       .  S
Ni123       O127   1.923       .  S
Ni123       O125   1.929       .  S
O124       Ni129   1.948       .  S
C126        O127   1.271       .  A
C126        C875   1.479       .  S
O131       Ni137   1.933       .  S
O131        C152   1.272       .  A
O132       Ni155   1.929       .  S
O132        C141   1.272       .  A
O133       Ni137   1.908       .  S
O133       Ni155   1.914       .  S
O133       Ni149   1.911       .  S
O133        H156   0.967       .  S
C134        O151   1.275       .  A
C134        O143   1.276       .  A
C134        C843   1.480   1_556  S
O135       Ni154   1.930       .  S
O135        C141   1.272       .  A
O136       Ni154   1.901       .  S
O136        C138   1.268       .  A
Ni137       O140   1.921       .  S
Ni137       O142   1.909       .  S
C138        O148   1.271       .  A
C138        C808   1.474       .  S
O139       Ni155   1.922       .  S
O139        C145   1.277       .  A
O140        C145   1.274       .  A
C141       C1067   1.481       .  S
O142        C144   1.272       .  A
O143       Ni154   1.932       .  S
C144        O150   1.276       .  A
C144        C776   1.483       .  S
C145        C827   1.471       .  S
H146        O147   0.967       .  S
O147       Ni155   1.922       .  S
O147       Ni149   1.912       .  S
O147       Ni154   1.911       .  S
O148       Ni149   1.934       .  S
Ni149       O153   1.898       .  S
Ni149       O151   1.923       .  S
O150       Ni155   1.948       .  S
C152        O153   1.265       .  A
C152        C792   1.466       .  S
O157       Ni163   1.930       .  S
O157        C178   1.272       .  A
O158       Ni181   1.919       .  S
O158        C167   1.269       .  A
O159       Ni163   1.910       .  S
O159       Ni181   1.918   1_545  S
O159       Ni175   1.926       .  S
O159        H182   0.966       .  S
C160        O177   1.278   1_565  A
C160        O169   1.277       .  A
C160        C731   1.468       .  S
O161       Ni180   1.927   1_556  S
O161        C167   1.270       .  A
O162       Ni180   1.913   1_545  S
O162        C164   1.269       .  A
Ni163       O166   1.930       .  S
Ni163       O168   1.904   1_545  S
C164        O174   1.274   1_554  A
C164       C1016   1.480       .  S
O165       Ni181   1.916       .  S
O165        C171   1.271       .  A
O166        C171   1.273   1_545  A
C167        C811   1.467       .  S
O168        C170   1.272       .  A
O169       Ni180   1.924       .  S
C170        O176   1.279       .  A
C170        C744   1.485       .  S
C171        C715   1.469       .  S
H172        O173   0.966       .  S
O173       Ni181   1.906       .  S
O173       Ni175   1.893   1_565  S
O173       Ni180   1.898   1_556  S
O174       Ni175   1.938       .  S
Ni175       O179   1.901       .  S
Ni175       O177   1.924   1_556  S
O176       Ni181   1.963       .  S
C178        O179   1.268       .  A
C178        C763   1.467   1_556  S
O183       Ni189   1.929       .  S
O183        C204   1.271       .  A
O184       Ni207   1.912       .  S
O184        C193   1.269       .  A
O185       Ni189   1.898       .  S
O185       Ni207   1.904   1_565  S
O185       Ni201   1.901       .  S
O185        H208   0.968       .  S
C186        O203   1.272       .  A
C186        O195   1.272   1_565  A
C186        C728   1.464       .  S
O187       Ni206   1.931       .  S
O187        C193   1.271       .  A
O188       Ni206   1.921   1_565  S
O188        C190   1.274       .  A
Ni189       O192   1.920       .  S
Ni189       O194   1.903   1_565  S
C190        O200   1.280       .  A
C190        C891   1.490       .  S
O191       Ni207   1.929       .  S
O191        C197   1.279   1_545  A
O192        C197   1.278       .  A
C193        C939   1.472       .  S
O194        C196   1.267       .  A
O195       Ni206   1.922       .  S
C196        O202   1.276       .  A
C196        C696   1.490       .  S
C197        C712   1.473       .  S
H198        O199   0.966       .  S
O199       Ni207   1.929       .  S
O199       Ni201   1.930   1_545  S
O199       Ni206   1.915       .  S
O200       Ni201   1.951       .  S
Ni201       O205   1.932       .  S
Ni201       O203   1.917       .  S
O202       Ni207   1.957       .  S
C204        O205   1.273       .  A
C204        C683   1.481       .  S
O209       Ni215   1.913       .  S
O209        C230   1.269       .  A
O210       Ni233   1.895       .  S
O210        C219   1.265       .  A
O211       Ni215   1.923       .  S
O211       Ni233   1.910       .  S
O211       Ni227   1.937       .  S
O211        H234   0.965       .  S
C212        O229   1.273       .  A
C212        O221   1.271       .  A
C212        C635   1.474       .  S
O213       Ni232   1.930       .  S
O213        C219   1.271       .  A
O214       Ni232   1.905       .  S
O214        C216   1.271       .  A
Ni215       O218   1.929       .  S
Ni215       O220   1.909       .  S
C216        O226   1.279       .  A
C216        C648   1.482       .  S
O217       Ni233   1.916       .  S
O217        C223   1.266       .  A
O218        C223   1.267       .  A
C219        C664   1.465       .  S
O220        C222   1.274       .  A
O221       Ni232   1.927       .  S
C222        O228   1.282       .  A
C222        C680   1.481       .  S
C223        C619   1.475       .  S
H224        O225   0.968       .  S
O225       Ni233   1.912       .  S
O225       Ni227   1.911       .  S
O225       Ni232   1.917       .  S
O226       Ni227   1.959       .  S
Ni227       O231   1.915       .  S
Ni227       O229   1.921       .  S
O228       Ni233   1.960       .  S
C230        O231   1.270       .  A
C230       C1147   1.467       .  S
O235       Ni241   1.922       .  S
O235        C256   1.269       .  A
O236       Ni259   1.923       .  S
O236        C245   1.269       .  A
O237       Ni241   1.908       .  S
O237       Ni259   1.920       .  S
O237       Ni253   1.920       .  S
O237        H260   0.968       .  S
C238        O255   1.277       .  A
C238        O247   1.275       .  A
C238        C616   1.476       .  S
O239       Ni258   1.931       .  S
O239        C245   1.271       .  A
O240       Ni258   1.907       .  S
O240        C242   1.268       .  A
Ni241       O244   1.917       .  S
Ni241       O246   1.899       .  S
C242        O252   1.273       .  A
C242        C587   1.479       .  S
O243       Ni259   1.926       .  S
O243        C249   1.275       .  A
O244        C249   1.272       .  A
C245        C600   1.477       .  S
O246        C248   1.268       .  A
O247       Ni258   1.925       .  S
C248        O254   1.277       .  A
C248        C747   1.481       .  S
C249        C632   1.472   1_556  S
H250        O251   0.967       .  S
O251       Ni259   1.918       .  S
O251       Ni253   1.920       .  S
O251       Ni258   1.915       .  S
O252       Ni253   1.941       .  S
Ni253       O257   1.926       .  S
Ni253       O255   1.926       .  S
O254       Ni259   1.954       .  S
C256        O257   1.271       .  A
C256       C1048   1.476       .  S
O261       Ni267   1.932       .  S
O261        C282   1.271       .  A
O262       Ni285   1.920       .  S
O262        C271   1.271       .  A
O263       Ni267   1.916       .  S
O263       Ni285   1.911       .  S
O263       Ni279   1.903       .  S
O263        H286   0.973       .  S
C264        O281   1.265       .  A
C264        O273   1.269       .  A
C264        C523   1.474   1_554  S
O265       Ni284   1.921       .  S
O265        C271   1.270       .  A
O266       Ni284   1.900       .  S
O266        C268   1.272       .  A
Ni267       O270   1.919       .  S
Ni267       O272   1.906       .  S
C268        O278   1.281       .  A
C268        C568   1.477       .  S
O269       Ni285   1.919       .  S
O269        C275   1.275       .  A
O270        C275   1.272       .  A
C271        C555   1.477       .  S
O272        C274   1.270       .  A
O273       Ni284   1.933       .  S
C274        O280   1.276       .  A
C274       C1128   1.476       .  S
C275        C536   1.469       .  S
H276        O277   0.967       .  S
O277       Ni285   1.938       .  S
O277       Ni279   1.917       .  S
O277       Ni284   1.923       .  S
O278       Ni279   1.959       .  S
Ni279       O283   1.901       .  S
Ni279       O281   1.909       .  S
O280       Ni285   1.943       .  S
C282        O283   1.266       .  A
C282        C760   1.467       .  S
O287       Ni293   1.941       .  S
O287        C308   1.273       .  A
O288       Ni311   1.915       .  S
O288        C297   1.268       .  A
O289       Ni293   1.916       .  S
O289       Ni311   1.915       .  S
O289       Ni305   1.912       .  S
O289        H312   0.955       .  S
C290        O307   1.273       .  A
C290        O299   1.271       .  A
C290        C539   1.469       .  S
O291       Ni310   1.926       .  S
O291        C297   1.270       .  A
O292       Ni310   1.911       .  S
O292        C294   1.272       .  A
Ni293       O296   1.934       .  S
Ni293       O298   1.905       .  S
C294        O304   1.278       .  A
C294        C507   1.487       .  S
O295       Ni311   1.918       .  S
O295        C301   1.275       .  A
O296        C301   1.277       .  A
C297        C491   1.470       .  S
O298        C300   1.268       .  A
O299       Ni310   1.916       .  S
C300        O306   1.274       .  A
C300       C1035   1.482       .  S
C301        C520   1.475       .  S
H302        O303   0.966       .  S
O303       Ni311   1.921       .  S
O303       Ni305   1.922       .  S
O303       Ni310   1.917       .  S
O304       Ni305   1.950       .  S
Ni305       O309   1.922       .  S
Ni305       O307   1.919       .  S
O306       Ni311   1.946       .  S
C308        O309   1.270       .  A
C308        C699   1.478       .  S
O313       Ni319   1.938       .  S
O313        C334   1.274       .  A
O314       Ni337   1.923       .  S
O314        C323   1.272       .  A
O315       Ni319   1.909       .  S
O315       Ni337   1.917       .  S
O315       Ni331   1.928       .  S
O315        H338   0.966       .  S
C316        O333   1.279       .  A
C316        O325   1.277       .  A
C316        C456   1.471       .  S
O317       Ni336   1.929   1_554  S
O317        C323   1.271       .  A
O318       Ni336   1.912       .  S
O318        C320   1.270       .  A
Ni319       O322   1.937       .  S
Ni319       O324   1.911       .  S
C320        O330   1.272       .  A
C320        C603   1.481       .  S
O321       Ni337   1.915       .  S
O321        C327   1.270       .  A
O322        C327   1.275       .  A
C323        C571   1.471       .  S
O324        C326   1.273       .  A
O325       Ni336   1.923       .  S
C326        O332   1.281       .  A
C326       C1000   1.482       .  S
C327        C475   1.471       .  S
H328        O329   0.966       .  S
O329       Ni337   1.904       .  S
O329       Ni331   1.890       .  S
O329       Ni336   1.893   1_554  S
O330       Ni331   1.938   1_556  S
Ni331       O335   1.892   1_554  S
Ni331       O333   1.928   1_554  S
O332       Ni337   1.963       .  S
C334        O335   1.265   1_554  A
C334        C795   1.465   1_554  S
O339       Ni345   1.915       .  S
O339        C360   1.266       .  A
O340       Ni363   1.896       .  S
O340        C349   1.266       .  A
O341       Ni345   1.893       .  S
O341       Ni363   1.888       .  S
O341       Ni357   1.902       .  S
O341        H364   0.969       .  S
C342        O359   1.268       .  A
C342        O351   1.273       .  A
C342        C459   1.467       .  S
O343       Ni362   1.934       .  S
O343        C349   1.273       .  A
O344       Ni362   1.915       .  S
O344        C346   1.273       .  A
Ni345       O348   1.914       .  S
Ni345       O350   1.901       .  S
C346        O356   1.280       .  A
C346        C504   1.485       .  S
O347       Ni363   1.939       .  S
O347        C353   1.283       .  A
O348        C353   1.277       .  A
C349        C667   1.466       .  S
O350        C352   1.266       .  A
O351       Ni362   1.932       .  S
C352        O358   1.272       .  A
C352        C872   1.484       .  S
C353        C472   1.470       .  S
H354        O355   0.966       .  S
O355       Ni363   1.936       .  S
O355       Ni357   1.925       .  S
O355       Ni362   1.916       .  S
O356       Ni357   1.951       .  S
Ni357       O361   1.921       .  S
Ni357       O359   1.909       .  S
O358       Ni363   1.946       .  S
C360        O361   1.269       .  A
C360        C920   1.463       .  S
O365       Ni371   1.927       .  S
O365        C386   1.271       .  A
O366       Ni389   1.915   1_655  S
O366        C375   1.269       .  A
O367       Ni371   1.905       .  S
O367       Ni389   1.909       .  S
O367       Ni383   1.910       .  S
O367        H390   0.968       .  S
C368        O385   1.274       .  A
C368        O377   1.269   1_455  A
C368        C427   1.474       .  S
O369       Ni388   1.929       .  S
O369        C375   1.270       .  A
O370       Ni388   1.906       .  S
O370        C372   1.273       .  A
Ni371       O374   1.919       .  S
Ni371       O376   1.908       .  S
C372        O382   1.280       .  A
C372        C651   1.477       .  S
O373       Ni389   1.926   1_655  S
O373        C379   1.277   1_655  A
O374        C379   1.275       .  A
C375        C552   1.478       .  S
O376        C378   1.268       .  A
O377       Ni388   1.915       .  S
C378        O384   1.272       .  A
C378        C987   1.475       .  S
C379        C440   1.470       .  S
H380        O381   0.966       .  S
O381       Ni389   1.929       .  S
O381       Ni383   1.933       .  S
O381       Ni388   1.915   1_455  S
O382       Ni383   1.954   1_655  S
Ni383       O387   1.942       .  S
Ni383       O385   1.929       .  S
O384       Ni389   1.933       .  S
C386        O387   1.275       .  A
C386        C859   1.486       .  S
O391       Ni397   1.925       .  S
O391        C412   1.268       .  A
O392       Ni415   1.925       .  S
O392        C401   1.273       .  A
O393       Ni397   1.900       .  S
O393       Ni415   1.906   1_455  S
O393       Ni409   1.908       .  S
O393        H416   0.967   1_455  S
C394        O411   1.276   1_655  A
C394        O403   1.274       .  A
C394        C443   1.469       .  S
O395       Ni414   1.924       .  S
O395        C401   1.270       .  A
O396       Ni414   1.903       .  S
O396        C398   1.270       .  A
Ni397       O400   1.917       .  S
Ni397       O402   1.901       .  S
C398        O408   1.278       .  A
C398        C584   1.482       .  S
O399       Ni415   1.937       .  S
O399        C405   1.285   1_655  A
O400        C405   1.277       .  A
C401        C488   1.476       .  S
O402        C404   1.266       .  A
O403       Ni414   1.920       .  S
C404        O410   1.272       .  A
C404        C907   1.474       .  S
C405        C424   1.473       .  S
H406        O407   0.967   1_455  S
O407       Ni415   1.926       .  S
O407       Ni409   1.919   1_655  S
O407       Ni414   1.903       .  S
O408       Ni409   1.950   1_655  S
Ni409       O413   1.932       .  S
Ni409       O411   1.918       .  S
O410       Ni415   1.938   1_455  S
C412        O413   1.272       .  A
C412        C779   1.475       .  S
C417        C422   1.379       .  A
C417        C418   1.409       .  A
C417        O423   1.319       .  A
C418        C419   1.406       .  A
C418        H429   1.082       .  S
C419        C428   1.373       .  A
C419        C420   1.380       .  A
C420        C421   1.402   1_455  A
C420        O426   1.313   1_455  A
C421        C422   1.399   1_655  A
C421        H430   1.082       .  S
C422        C425   1.364   1_455  A
O423        C424   1.334       .  A
C424        C425   1.389   1_455  A
C425        H431   1.082       .  S
O426        C427   1.331   1_655  A
C427        C428   1.394       .  A
C428        H432   1.082       .  S
C433        C438   1.380   1_455  A
C433        C434   1.401       .  A
C433        O439   1.314       .  A
C434        C435   1.398   1_554  A
C434        H445   1.082       .  S
C435        C444   1.361       .  A
C435        C436   1.380   1_455  A
C436        C437   1.406   1_556  A
C436        O442   1.318       .  A
C437        C438   1.404       .  A
C437        H446   1.082       .  S
C438        C441   1.367       .  A
O439        C440   1.329       .  A
C440        C441   1.394   1_455  A
C441        H447   1.083       .  S
O442        C443   1.332       .  A
C443        C444   1.390   1_655  A
C444        H448   1.083       .  S
C449        C454   1.380       .  A
C449        C450   1.403       .  A
C449        O455   1.319       .  A
C450        C451   1.403       .  A
C450        H461   1.082       .  S
C451        C460   1.362       .  A
C451        C452   1.381       .  A
C452        C453   1.405       .  A
C452        O458   1.321       .  A
C453        C454   1.404       .  A
C453        H462   1.082       .  S
C454        C457   1.363       .  A
O455        C456   1.331       .  A
C456        C457   1.392       .  A
C457        H463   1.083       .  S
O458        C459   1.331       .  A
C459        C460   1.389       .  A
C460        H464   1.083       .  S
C465        C470   1.380       .  A
C465        C466   1.398       .  A
C465        O471   1.313       .  A
C466        C467   1.397       .  A
C466        H477   1.083       .  S
C467        C476   1.355       .  A
C467        C468   1.380       .  A
C468        C469   1.410       .  A
C468        O474   1.324       .  A
C469        C470   1.409       .  A
C469        H478   1.082       .  S
C470        C473   1.371       .  A
O471        C472   1.329       .  A
C472        C473   1.395       .  A
C473        H479   1.082       .  S
O474        C475   1.334       .  A
C475        C476   1.388       .  A
C476        H480   1.083       .  S
C481        C486   1.380       .  A
C481        C482   1.406       .  A
C481        O487   1.318       .  A
C482        C483   1.403       .  A
C482        H493   1.082       .  S
C483        C492   1.367       .  A
C483        C484   1.380       .  A
C484        C485   1.407       .  A
C484        O490   1.319       .  A
C485        C486   1.405       .  A
C485        H494   1.082       .  S
C486        C489   1.369       .  A
O487        C488   1.333       .  A
C488        C489   1.392       .  A
C489        H495   1.082       .  S
O490        C491   1.332       .  A
C491        C492   1.390       .  A
C492        H496   1.083       .  S
C497        C502   1.379       .  A
C497        C498   1.403       .  A
C497        O503   1.319       .  A
C498        C499   1.402       .  A
C498        H509   1.082       .  S
C499        C508   1.361       .  A
C499        C500   1.379       .  A
C500        C501   1.413       .  A
C500        O506   1.328       .  A
C501        C502   1.413       .  A
C501        H510   1.082       .  S
C502        C505   1.373       .  A
O503        C504   1.332       .  A
C504        C505   1.398       .  A
C505        H511   1.082       .  S
O506        C507   1.337       .  A
C507        C508   1.393       .  A
C508        H512   1.083       .  S
C513        C518   1.380       .  A
C513        C514   1.406       .  A
C513        O519   1.320       .  A
C514        C515   1.405       .  A
C514        H525   1.082       .  S
C515        C524   1.366       .  A
C515        C516   1.380       .  A
C516        C517   1.404       .  A
C516        O522   1.318       .  A
C517        C518   1.403       .  A
C517        H526   1.082       .  S
C518        C521   1.364       .  A
O519        C520   1.332       .  A
C520        C521   1.392       .  A
C521        H527   1.083       .  S
O522        C523   1.331       .  A
C523        C524   1.393       .  A
C524        H528   1.083       .  S
C529        C534   1.380       .  A
C529        C530   1.404       .  A
C529        O535   1.316       .  A
C530        C531   1.401       .  A
C530        H541   1.082       .  S
C531        C540   1.364       .  A
C531        C532   1.380       .  A
C532        C533   1.404       .  A
C532        O538   1.316       .  A
C533        C534   1.401       .  A
C533        H542   1.082       .  S
C534        C537   1.364       .  A
O535        C536   1.331       .  A
C536        C537   1.391       .  A
C537        H543   1.082       .  S
O538        C539   1.331       .  A
C539        C540   1.391       .  A
C540        H544   1.082       .  S
C545        C550   1.380       .  A
C545        C546   1.408       .  A
C545        O551   1.321       .  A
C546        C547   1.406       .  A
C546        H557   1.082       .  S
C547        C556   1.369       .  A
C547        C548   1.380       .  A
C548        C549   1.406       .  A
C548        O554   1.319       .  A
C549        C550   1.404       .  A
C549        H558   1.082       .  S
C550        C553   1.367       .  A
O551        C552   1.334       .  A
C552        C553   1.392       .  A
C553        H559   1.083       .  S
O554        C555   1.332       .  A
C555        C556   1.393       .  A
C556        H560   1.082       .  S
C561        C566   1.380       .  A
C561        C562   1.409       .  A
C561        O567   1.325       .  A
C562        C563   1.409       .  A
C562        H573   1.082       .  S
C563        C572   1.369       .  A
C563        C564   1.381       .  A
C564        C565   1.400       .  A
C564        O570   1.317       .  A
C565        C566   1.400       .  A
C565        H574   1.082       .  S
C566        C569   1.357       .  A
O567        C568   1.334       .  A
C568        C569   1.390       .  A
C569        H575   1.083       .  S
O570        C571   1.329       .  A
C571        C572   1.394       .  A
C572        H576   1.082       .  S
C577        C582   1.379       .  A
C577        C578   1.412       .  A
C577        O583   1.328       .  A
C578        C579   1.412       .  A
C578        H589   1.082       .  S
C579        C588   1.371       .  A
C579        C580   1.380       .  A
C580        C581   1.400       .  A
C580        O586   1.317       .  A
C581        C582   1.400       .  A
C581        H590   1.082       .  S
C582        C585   1.356       .  A
O583        C584   1.336       .  A
C584        C585   1.391       .  A
C585        H591   1.083       .  S
O586        C587   1.330       .  A
C587        C588   1.397       .  A
C588        H592   1.082       .  S
C593        C598   1.380       .  A
C593        C594   1.397       .  A
C593        O599   1.314       .  A
C594        C595   1.397       .  A
C594        H605   1.082       .  S
C595        C604   1.354       .  A
C595        C596   1.379       .  A
C596        C597   1.415       .  A
C596        O602   1.329       .  A
C597        C598   1.414       .  A
C597        H606   1.082       .  S
C598        C601   1.375       .  A
O599        C600   1.328       .  A
C600        C601   1.398       .  A
C601        H607   1.082       .  S
O602        C603   1.338       .  A
C603        C604   1.389       .  A
C604        H608   1.083       .  S
C609        C614   1.380       .  A
C609        C610   1.407       .  A
C609        O615   1.319       .  A
C610        C611   1.404       .  A
C610        H621   1.082       .  S
C611        C620   1.367       .  A
C611        C612   1.380       .  A
C612        C613   1.405       .  A
C612        O618   1.318       .  A
C613        C614   1.403       .  A
C613        H622   1.082       .  S
C614        C617   1.366       .  A
O615        C616   1.333       .  A
C616        C617   1.392       .  A
C617        H623   1.082       .  S
O618        C619   1.332       .  A
C619        C620   1.393       .  A
C620        H624   1.083       .  S
C625        C630   1.380       .  A
C625        C626   1.404       .  A
C625        O631   1.315       .  A
C626        C627   1.401       .  A
C626        H637   1.082       .  S
C627        C636   1.366       .  A
C627        C628   1.379       .  A
C628        C629   1.407       .  A
C628        O634   1.318       .  A
C629        C630   1.404       .  A
C629        H638   1.082       .  S
C630        C633   1.368       .  A
O631        C632   1.331       .  A
C632        C633   1.393       .  A
C633        H639   1.082       .  S
O634        C635   1.333       .  A
C635        C636   1.391       .  A
C636        H640   1.082       .  S
C641        C646   1.379       .  A
C641        C642   1.414       .  A
C641        O647   1.328       .  A
C642        C643   1.413       .  A
C642        H653   1.082       .  S
C643        C652   1.373       .  A
C643        C644   1.380       .  A
C644        C645   1.399       .  A
C644        O650   1.315       .  A
C645        C646   1.398       .  A
C645        H654   1.082       .  S
C646        C649   1.356       .  A
O647        C648   1.337       .  A
C648        C649   1.390       .  A
C649        H655   1.083       .  S
O650        C651   1.329       .  A
C651        C652   1.397       .  A
C652        H656   1.082       .  S
C657        C662   1.381       .  A
C657        C658   1.404       .  A
C657        O663   1.319       .  A
C658        C659   1.403       .  A
C658        H669   1.082       .  S
C659        C668   1.363       .  A
C659        C660   1.381       .  A
C660        C661   1.401       .  A
C660        O666   1.317       .  A
C661        C662   1.400       .  A
C661        H670   1.082       .  S
C662        C665   1.359       .  A
O663        C664   1.331       .  A
C664        C665   1.389       .  A
C665        H671   1.083       .  S
O666        C667   1.329       .  A
C667        C668   1.391       .  A
C668        H672   1.083       .  S
C673        C678   1.380       .  A
C673        C674   1.402       .  A
C673        O679   1.319       .  A
C674        C675   1.402       .  A
C674        H685   1.082       .  S
C675        C684   1.359       .  A
C675        C676   1.380       .  A
C676        C677   1.412       .  A
C676        O682   1.328       .  A
C677        C678   1.412       .  A
C677        H686   1.082       .  S
C678        C681   1.371       .  A
O679        C680   1.331       .  A
C680        C681   1.397       .  A
C681        H687   1.082       .  S
O682        C683   1.335       .  A
C683        C684   1.391       .  A
C684        H688   1.083       .  S
C689        C694   1.379       .  A
C689        C690   1.414       .  A
C689        O695   1.330       .  A
C690        C691   1.414       .  A
C690        H701   1.082       .  S
C691        C700   1.374       .  A
C691        C692   1.380       .  A
C692        C693   1.401       .  A
C692        O698   1.319       .  A
C693        C694   1.402       .  A
C693        H702   1.082       .  S
C694        C697   1.358       .  A
O695        C696   1.338       .  A
C696        C697   1.393       .  A
C697        H703   1.083       .  S
O698        C699   1.330       .  A
C699        C700   1.396       .  A
C700        H704   1.082       .  S
C705        C710   1.380       .  A
C705        C706   1.410       .  A
C705        O711   1.326       .  A
C706        C707   1.410       .  A
C706        H717   1.082   1_565  S
C707        C716   1.369       .  A
C707        C708   1.381       .  A
C708        C709   1.397       .  A
C708        O714   1.314       .  A
C709        C710   1.396       .  A
C709        H718   1.083       .  S
C710        C713   1.352       .  A
O711        C712   1.334       .  A
C712        C713   1.389       .  A
C713        H719   1.083       .  S
O714        C715   1.328       .  A
C715        C716   1.395       .  A
C716        H720   1.082       .  S
C721        C726   1.381   1_545  A
C721        C722   1.404       .  A
C721        O727   1.320       .  A
C722        C723   1.403       .  A
C722        H733   1.082       .  S
C723        C732   1.361       .  A
C723        C724   1.381   1_545  A
C724        C725   1.403       .  A
C724        O730   1.319       .  A
C725        C726   1.402       .  A
C725        H734   1.082       .  S
C726        C729   1.361       .  A
O727        C728   1.331   1_545  A
C728        C729   1.389       .  A
C729        H735   1.083       .  S
O730        C731   1.330       .  A
C731        C732   1.391   1_565  A
C732        H736   1.083       .  S
C737        C742   1.379       .  A
C737        C738   1.416       .  A
C737        O743   1.330       .  A
C738        C739   1.415       .  A
C738        H749   1.082       .  S
C739        C748   1.378       .  A
C739        C740   1.379       .  A
C740        C741   1.398       .  A
C740        O746   1.313       .  A
C741        C742   1.397       .  A
C741        H750   1.082       .  S
C742        C745   1.355       .  A
O743        C744   1.338       .  A
C744        C745   1.390       .  A
C745        H751   1.083       .  S
O746        C747   1.329       .  A
C747        C748   1.399       .  A
C748        H752   1.082       .  S
C753        C758   1.381       .  A
C753        C754   1.404       .  A
C753        O759   1.318       .  A
C754        C755   1.402       .  A
C754        H765   1.082       .  S
C755        C764   1.363       .  A
C755        C756   1.381       .  A
C756        C757   1.404       .  A
C756        O762   1.318   1_554  A
C757        C758   1.402       .  A
C757        H766   1.082   1_554  S
C758        C761   1.363       .  A
O759        C760   1.330       .  A
C760        C761   1.391       .  A
C761        H767   1.083       .  S
O762        C763   1.331   1_556  A
C763        C764   1.390       .  A
C764        H768   1.083       .  S
C769        C774   1.379       .  A
C769        C770   1.413       .  A
C769        O775   1.328       .  A
C770        C771   1.413       .  A
C770        H781   1.082       .  S
C771        C780   1.374       .  A
C771        C772   1.380       .  A
C772        C773   1.400       .  A
C772        O778   1.316       .  A
C773        C774   1.399       .  A
C773        H782   1.082       .  S
C774        C777   1.357       .  A
O775        C776   1.337       .  A
C776        C777   1.391       .  A
C777        H783   1.083       .  S
O778        C779   1.329       .  A
C779        C780   1.396       .  A
C780        H784   1.082       .  S
C785        C790   1.381       .  A
C785        C786   1.403       .  A
C785        O791   1.318       .  A
C786        C787   1.402       .  A
C786        H797   1.082       .  S
C787        C796   1.360       .  A
C787        C788   1.381       .  A
C788        C789   1.403       .  A
C788        O794   1.319   1_556  A
C789        C790   1.402       .  A
C789        H798   1.082   1_556  S
C790        C793   1.361       .  A
O791        C792   1.330       .  A
C792        C793   1.390       .  A
C793        H799   1.083       .  S
O794        C795   1.330   1_554  A
C795        C796   1.390       .  A
C796        H800   1.083       .  S
C801        C806   1.380       .  A
C801        C802   1.410       .  A
C801        O807   1.325       .  A
C802        C803   1.409       .  A
C802        H813   1.082       .  S
C803        C812   1.369       .  A
C803        C804   1.381       .  A
C804        C805   1.397       .  A
C804        O810   1.314       .  A
C805        C806   1.396       .  A
C805        H814   1.082       .  S
C806        C809   1.353       .  A
O807        C808   1.335       .  A
C808        C809   1.389       .  A
C809        H815   1.083       .  S
O810        C811   1.327       .  A
C811        C812   1.394       .  A
C812        H816   1.082       .  S
C817        C822   1.380       .  A
C817        C818   1.402       .  A
C817        O823   1.316       .  A
C818        C819   1.400       .  A
C818        H829   1.082       .  S
C819        C828   1.363       .  A
C819        C820   1.380       .  A
C820        C821   1.407       .  A
C820        O826   1.318       .  A
C821        C822   1.405       .  A
C821        H830   1.082       .  S
C822        C825   1.367       .  A
O823        C824   1.330       .  A
C824        C825   1.394       .  A
C825        H831   1.082       .  S
O826        C827   1.333       .  A
C827        C828   1.390       .  A
C828        H832   1.082       .  S
C833        C838   1.380       .  A
C833        C834   1.408       .  A
C833        O839   1.323       .  A
C834        C835   1.407       .  A
C834        H845   1.082       .  S
C835        C844   1.366       .  A
C835        C836   1.380       .  A
C836        C837   1.405       .  A
C836        O842   1.321       .  A
C837        C838   1.404       .  A
C837        H846   1.082       .  S
C838        C841   1.363       .  A
O839        C840   1.334       .  A
C840        C841   1.393       .  A
C841        H847   1.083       .  S
O842        C843   1.332       .  A
C843        C844   1.395       .  A
C844        H848   1.083       .  S
C849        C854   1.379       .  A
C849        C850   1.401       .  A
C849        O855   1.318       .  A
C850        C851   1.401       .  A
C850        H861   1.082       .  S
C851        C860   1.358       .  A
C851        C852   1.379       .  A
C852        C853   1.416       .  A
C852        O858   1.331       .  A
C853        C854   1.416       .  A
C853        H862   1.082       .  S
C854        C857   1.376       .  A
O855        C856   1.331       .  A
C856        C857   1.399       .  A
C857        H863   1.082       .  S
O858        C859   1.338       .  A
C859        C860   1.391       .  A
C860        H864   1.083       .  S
C865        C870   1.379       .  A
C865        C866   1.414       .  A
C865        O871   1.329       .  A
C866        C867   1.414       .  A
C866        H877   1.082       .  S
C867        C876   1.375       .  A
C867        C868   1.380       .  A
C868        C869   1.399       .  A
C868        O874   1.316       .  A
C869        C870   1.399       .  A
C869        H878   1.082       .  S
C870        C873   1.356       .  A
O871        C872   1.337       .  A
C872        C873   1.391       .  A
C873        H879   1.083       .  S
O874        C875   1.329       .  A
C875        C876   1.398       .  A
C876        H880   1.082       .  S
C881        C886   1.378       .  A
C881        C882   1.416       .  A
C881        O887   1.332       .  A
C882        C883   1.416       .  A
C882        H893   1.082       .  S
C883        C892   1.376       .  A
C883        C884   1.379       .  A
C884        C885   1.404       .  A
C884        O890   1.321       .  A
C885        C886   1.404       .  A
C885        H894   1.082       .  S
C886        C889   1.361       .  A
O887        C888   1.338       .  A
C888        C889   1.395       .  A
C889        H895   1.083       .  S
O890        C891   1.333       .  A
C891        C892   1.399       .  A
C892        H896   1.082       .  S
C897        C902   1.380       .  A
C897        C898   1.411       .  A
C897        O903   1.326       .  A
C898        C899   1.410       .  A
C898        H909   1.082       .  S
C899        C908   1.371       .  A
C899        C900   1.380       .  A
C900        C901   1.398       .  A
C900        O906   1.314       .  A
C901        C902   1.397       .  A
C901        H910   1.083       .  S
C902        C905   1.354       .  A
O903        C904   1.334       .  A
C904        C905   1.388       .  A
C905        H911   1.083       .  S
O906        C907   1.328       .  A
C907        C908   1.396       .  A
C908        H912   1.082       .  S
C913        C918   1.381       .  A
C913        C914   1.395       .  A
C913        O919   1.310       .  A
C914        C915   1.394       .  A
C914        H925   1.083       .  S
C915        C924   1.351       .  A
C915        C916   1.380       .  A
C916        C917   1.410       .  A
C916        O922   1.324       .  A
C917        C918   1.409       .  A
C917        H926   1.082       .  S
C918        C921   1.370       .  A
O919        C920   1.327       .  A
C920        C921   1.393       .  A
C921        H927   1.082       .  S
O922        C923   1.334       .  A
C923        C924   1.388       .  A
C924        H928   1.083       .  S
C929        C934   1.380       .  A
C929        C930   1.404       .  A
C929        O935   1.318       .  A
C930        C931   1.402       .  A
C930        H941   1.082       .  S
C931        C940   1.364       .  A
C931        C932   1.380       .  A
C932        C933   1.406       .  A
C932        O938   1.320       .  A
C933        C934   1.404       .  A
C933        H942   1.082       .  S
C934        C937   1.366       .  A
O935        C936   1.331       .  A
C936        C937   1.391       .  A
C937        H943   1.082       .  S
O938        C939   1.332       .  A
C939        C940   1.390       .  A
C940        H944   1.082       .  S
C945        C950   1.380       .  A
C945        C946   1.405       .  A
C945        O951   1.317       .  A
C946        C947   1.403       .  A
C946        H957   1.082       .  S
C947        C956   1.367       .  A
C947        C948   1.380       .  A
C948        C949   1.407       .  A
C948        O954   1.318       .  A
C949        C950   1.404       .  A
C949        H958   1.082       .  S
C950        C953   1.368       .  A
O951        C952   1.332       .  A
C952        C953   1.393       .  A
C953        H959   1.082       .  S
O954        C955   1.333       .  A
C955        C956   1.392       .  A
C956        H960   1.082       .  S
C961        C966   1.380       .  A
C961        C962   1.406       .  A
C961        O967   1.323       .  A
C962        C963   1.406       .  A
C962        H973   1.082       .  S
C963        C972   1.363       .  A
C963        C964   1.380       .  A
C964        C965   1.405       .  A
C964        O970   1.322       .  A
C965        C966   1.405       .  A
C965        H974   1.082       .  S
C966        C969   1.362       .  A
O967        C968   1.333       .  A
C968        C969   1.394       .  A
C969        H975   1.082       .  S
O970        C971   1.332       .  A
C971        C972   1.395       .  A
C972        H976   1.082       .  S
C977        C982   1.380       .  A
C977        C978   1.409       .  A
C977        O983   1.325       .  A
C978        C979   1.408       .  A
C978        H989   1.082       .  S
C979        C988   1.368       .  A
C979        C980   1.380       .  A
C980        C981   1.401       .  A
C980        O986   1.318       .  A
C981        C982   1.401       .  A
C981        H990   1.082       .  S
C982        C985   1.358       .  A
O983        C984   1.334       .  A
C984        C985   1.390       .  A
C985        H991   1.083       .  S
O986        C987   1.330       .  A
C987        C988   1.395       .  A
C988        H992   1.082       .  S
C993        C998   1.380       .  A
C993        C994   1.399       .  A
C993        O999   1.318       .  A
C994        C995   1.400       .  A
C994       H1005   1.082       .  S
C995       C1004   1.355       .  A
C995        C996   1.379       .  A
C996        C997   1.415       .  A
C996       O1002   1.333       .  A
C997        C998   1.416       .  A
C997       H1006   1.082       .  S
C998       C1001   1.374       .  A
O999       C1000   1.330       .  A
C1000      C1001   1.399       .  A
C1001      H1007   1.082       .  S
O1002      C1003   1.339       .  A
C1003      C1004   1.392       .  A
C1004      H1008   1.083       .  S
C1009      C1014   1.380       .  A
C1009      C1010   1.401       .  A
C1009      O1015   1.318       .  A
C1010      C1011   1.400       .  A
C1010      H1021   1.082       .  S
C1011      C1020   1.356       .  A
C1011      C1012   1.380       .  A
C1012      C1013   1.412       .  A
C1012      O1018   1.328       .  A
C1013      C1014   1.412       .  A
C1013      H1022   1.082       .  S
C1014      C1017   1.372       .  A
O1015      C1016   1.331       .  A
C1016      C1017   1.397       .  A
C1017      H1023   1.082   1_554  S
O1018      C1019   1.336       .  A
C1019      C1020   1.391       .  A
C1020      H1024   1.083       .  S
C1025      C1030   1.380       .  A
C1025      C1026   1.402       .  A
C1025      O1031   1.318       .  A
C1026      C1027   1.401       .  A
C1026      H1037   1.082       .  S
C1027      C1036   1.359       .  A
C1027      C1028   1.379       .  A
C1028      C1029   1.411       .  A
C1028      O1034   1.327       .  A
C1029      C1030   1.411       .  A
C1029      H1038   1.082       .  S
C1030      C1033   1.371       .  A
O1031      C1032   1.331       .  A
C1032      C1033   1.396       .  A
C1033      H1039   1.082       .  S
O1034      C1035   1.335       .  A
C1035      C1036   1.392       .  A
C1036      H1040   1.083       .  S
C1041      C1046   1.380       .  A
C1041      C1042   1.404       .  A
C1041      O1047   1.316       .  A
C1042      C1043   1.401       .  A
C1042      H1053   1.082       .  S
C1043      C1052   1.365       .  A
C1043      C1044   1.380       .  A
C1044      C1045   1.409       .  A
C1044      O1050   1.320       .  A
C1045      C1046   1.407       .  A
C1045      H1054   1.082       .  S
C1046      C1049   1.371       .  A
O1047      C1048   1.331       .  A
C1048      C1049   1.394       .  A
C1049      H1055   1.082       .  S
O1050      C1051   1.333       .  A
C1051      C1052   1.389       .  A
C1052      H1056   1.083       .  S
C1057      C1062   1.380       .  A
C1057      C1058   1.400       .  A
C1057      O1063   1.316       .  A
C1058      C1059   1.400       .  A
C1058      H1069   1.083       .  S
C1059      C1068   1.356       .  A
C1059      C1060   1.380       .  A
C1060      C1061   1.412       .  A
C1060      O1066   1.328       .  A
C1061      C1062   1.412       .  A
C1061      H1070   1.082       .  S
C1062      C1065   1.373       .  A
O1063      C1064   1.330       .  A
C1064      C1065   1.396       .  A
C1065      H1071   1.082       .  S
O1066      C1067   1.335       .  A
C1067      C1068   1.391       .  A
C1068      H1072   1.083       .  S
C1073      C1078   1.381       .  A
C1073      C1074   1.399       .  A
C1073      O1079   1.314       .  A
C1074      C1075   1.398       .  A
C1074      H1085   1.082       .  S
C1075      C1084   1.357       .  A
C1075      C1076   1.380       .  A
C1076      C1077   1.408       .  A
C1076      O1082   1.322       .  A
C1077      C1078   1.407       .  A
C1077      H1086   1.082       .  S
C1078      C1081   1.369       .  A
O1079      C1080   1.328       .  A
C1080      C1081   1.393       .  A
C1081      H1087   1.082       .  S
O1082      C1083   1.333       .  A
C1083      C1084   1.390       .  A
C1084      H1088   1.083       .  S
C1089      C1094   1.380   1_445  A
C1089      C1090   1.403       .  A
C1089      O1095   1.318       .  A
C1090      C1091   1.402       .  A
C1090      H1101   1.082       .  S
C1091      C1100   1.362       .  A
C1091      C1092   1.380   1_445  A
C1092      C1093   1.405       .  A
C1092      O1098   1.319       .  A
C1093      C1094   1.404       .  A
C1093      H1102   1.082       .  S
C1094      C1097   1.364       .  A
O1095      C1096   1.331       .  A
C1096      C1097   1.392   1_445  A
C1097      H1103   1.082       .  S
O1098      C1099   1.332   1_565  A
C1099      C1100   1.391   1_655  A
C1100      H1104   1.083       .  S
C1105      C1110   1.380   1_445  A
C1105      C1106   1.406       .  A
C1105      O1111   1.317       .  A
C1106      C1107   1.403   1_556  A
C1106      H1117   1.082       .  S
C1107      C1116   1.367       .  A
C1107      C1108   1.380   1_445  A
C1108      C1109   1.402   1_554  A
C1108      O1114   1.314       .  A
C1109      C1110   1.399       .  A
C1109      H1118   1.082       .  S
C1110      C1113   1.364       .  A
O1111      C1112   1.333       .  A
C1112      C1113   1.390   1_445  A
C1113      H1119   1.082       .  S
O1114      C1115   1.330   1_665  A
C1115      C1116   1.392       .  A
C1116      H1120   1.082       .  S
C1121      C1126   1.380       .  A
C1121      C1122   1.399       .  A
C1121      O1127   1.316       .  A
C1122      C1123   1.399       .  A
C1122      H1133   1.082       .  S
C1123      C1132   1.356       .  A
C1123      C1124   1.380       .  A
C1124      C1125   1.410       .  A
C1124      O1130   1.326       .  A
C1125      C1126   1.410       .  A
C1125      H1134   1.082       .  S
C1126      C1129   1.370       .  A
O1127      C1128   1.329       .  A
C1128      C1129   1.396       .  A
C1129      H1135   1.082       .  S
O1130      C1131   1.335       .  A
C1131      C1132   1.391       .  A
C1132      H1136   1.083       .  S
C1137      C1142   1.381       .  A
C1137      C1138   1.404       .  A
C1137      O1143   1.323       .  A
C1138      C1139   1.405       .  A
C1138      H1149   1.082       .  S
C1139      C1148   1.360       .  A
C1139      C1140   1.381       .  A
C1140      C1141   1.401       .  A
C1140      O1146   1.320       .  A
C1141      C1142   1.402       .  A
C1141      H1150   1.082       .  S
C1142      C1145   1.356       .  A
O1143      C1144   1.331       .  A
C1144      C1145   1.390       .  A
C1145      H1151   1.083       .  S
O1146      C1147   1.329       .  A
C1147      C1148   1.393       .  A
C1148      H1152   1.083       .  S
C1153      C1158   1.380       .  A
C1153      C1154   1.410       .  A
C1153      O1159   1.325       .  A
C1154      C1155   1.409       .  A
C1154      H1165   1.082       .  S
C1155      C1164   1.370       .  A
C1155      C1156   1.380       .  A
C1156      C1157   1.400       .  A
C1156      O1162   1.316       .  A
C1157      C1158   1.400       .  A
C1157      H1166   1.082       .  S
C1158      C1161   1.358       .  A
O1159      C1160   1.334       .  A
C1160      C1161   1.390       .  A
C1161      H1167   1.083       .  S
O1162      C1163   1.330       .  A
C1163      C1164   1.396       .  A
C1164      H1168   1.082       .  S
C1169      C1174   1.378       .  A
C1169      C1170   1.416       .  A
C1169      O1175   1.332       .  A
C1170      C1171   1.416       .  A
C1170      H1181   1.082       .  S
C1171      C1180   1.377       .  A
C1171      C1172   1.380       .  A
C1172      C1173   1.398       .  A
C1172      O1178   1.315       .  A
C1173      C1174   1.398       .  A
C1173      H1182   1.082       .  S
C1174      C1177   1.355       .  A
O1175      C1176   1.339       .  A
C1176      C1177   1.390       .  A
C1177      H1183   1.083       .  S
O1178      C1179   1.329       .  A
C1179      C1180   1.398       .  A
C1180      H1184   1.082       .  S
