geometry optimzed in LAMMPS
_audit_creation_date              2020-12-01 
_audit_creation_method            'lammps2cif' 
_symmetry_space_group_name_H-M    'P1' 
_symmetry_Int_Tables_number       1 
_symmetry_cell_setting            triclinic 
loop_ 
_symmetry_equiv_pos_as_xyz 
  x,y,z 
_cell_length_a                    49.25107811 
_cell_length_b                    23.076619910085824 
_cell_length_c                    38.23366748645399 
_cell_angle_alpha                 89.74311946920399 
_cell_angle_beta                  90.14273642391683 
_cell_angle_gamma                 89.70707223689756 
loop_ 
_atom_site_label 
_atom_site_type_symbol 
_atom_site_fract_x 
_atom_site_fract_y 
_atom_site_fract_z 
_atom_site_charge 
O1          O  0.11439288  0.30691728  0.37235212    -0.73700
O2          O  0.16349817  0.18572423  0.41583171    -0.74600
O3          O  0.11667719  0.18470240  0.37120356    -0.63300
O4          O  0.16118610  0.30992087  0.41705136    -0.71700
O5          O  0.13358697  0.30598820  0.46249436    -0.71200
O6          O  0.08966412  0.18165369  0.41743772    -0.62500
O7          O  0.13590177  0.18294156  0.46137267    -0.75000
O8          O  0.08732800  0.30264305  0.41835626    -0.73800
Cu9        Cu  0.13999567  0.24694760  0.39251385     1.04600
Cu10       Cu  0.11087963  0.24320909  0.44156453     1.04300
C11         C  0.09261410  0.32257011  0.38798954     0.92500
C12         C  0.15712103  0.16456858  0.44563520     0.91700
C13         C  0.09567348  0.16472608  0.38669108     0.83800
C14         C  0.15425637  0.32784506  0.44738451     0.90100
O15         O  0.94380750  0.99560285  0.22651567    -0.73700
O16         O  0.99974774  0.07441077  0.28583631    -0.74600
O17         O  0.00179984  0.00021799  0.22796685    -0.63300
O18         O  0.94166016  0.07040987  0.28440606    -0.71700
O19         O  0.94243239  0.99531185  0.32079553    -0.71200
O20         O  0.00258736  0.92493363  0.26419800    -0.62500
O21         O  0.00077089  0.99914687  0.32205243    -0.75000
O22         O  0.94464187  0.92016508  0.26285324    -0.73800
Cu23       Cu  0.97165299  0.03789392  0.25501073     1.04600
Cu24       Cu  0.97257756  0.95731166  0.29377355     1.04300
C25         C  0.93533445  0.94553561  0.23557668     0.92500
C26         C  0.01014965  0.04805527  0.31215480     0.91700
C27         C  0.01232015  0.95216373  0.23792205     0.83800
C28         C  0.93193913  0.04334662  0.31072647     0.90100
O29         O  0.00016272  0.49742290  0.22651127    -0.73700
O30         O  0.94174592  0.41825412  0.28233037    -0.74600
O31         O  0.94228770  0.49518962  0.22454250    -0.63300
O32         O  0.99977418  0.41958055  0.28351136    -0.71700
O33         O  0.99823786  0.49239199  0.32117192    -0.71200
O34         O  0.94185139  0.57059214  0.26047133    -0.62500
O35         O  0.94027618  0.49310083  0.31848767    -0.75000
O36         O  0.99928283  0.57007865  0.26422564    -0.73800
Cu37       Cu  0.97097867  0.45490076  0.25301405     1.04600
Cu38       Cu  0.96979509  0.53403872  0.29241555     1.04300
C39         C  0.00939394  0.54593595  0.23724946     0.92500
C40         C  0.93135839  0.44388100  0.30874864     0.91700
C41         C  0.93333850  0.54519760  0.23290623     0.83800
C42         C  0.00868902  0.44457073  0.31093484     0.90100
O43         O  0.11285055  0.68846033  0.17484472    -0.73700
O44         O  0.16142531  0.80511520  0.12708198    -0.74600
O45         O  0.11627527  0.81061915  0.17460823    -0.63300
O46         O  0.15743748  0.68029586  0.12808581    -0.71700
O47         O  0.12786861  0.68397267  0.08443033    -0.71200
O48         O  0.08815883  0.81565346  0.12937758    -0.62500
O49         O  0.13299210  0.80701075  0.08229358    -0.75000
O50         O  0.08376940  0.69435524  0.13064096    -0.73800
Cu51       Cu  0.13812762  0.74610978  0.15264802     1.04600
Cu52       Cu  0.10738732  0.75050367  0.10506313     1.04300
C53         C  0.09046611  0.67366551  0.16045729     0.92500
C54         C  0.15463033  0.82524386  0.09702071     0.91700
C55         C  0.09511596  0.83220043  0.15992530     0.83800
C56         C  0.14845901  0.66026882  0.09918331     0.90100
C57         C  0.72066976  0.49923763  0.02170394    -0.03200
C58         C  0.72277878  0.00315360  0.02527290    -0.03200
O59         O  0.58609895  0.31235898  0.12037272    -0.73700
O60         O  0.63148299  0.18184512  0.08392398    -0.74600
O61         O  0.58406580  0.19228255  0.12546486    -0.63300
O62         O  0.63376051  0.30465467  0.07901051    -0.71700
O63         O  0.65988002  0.30740431  0.12616653    -0.71200
O64         O  0.60941987  0.19633531  0.17361655    -0.62500
O65         O  0.65704997  0.18469385  0.13173876    -0.75000
O66         O  0.61195986  0.31744803  0.16792016    -0.73800
Cu67       Cu  0.60812733  0.24773893  0.10044315     1.04600
Cu68       Cu  0.63559808  0.25157556  0.15148486     1.04300
C69         C  0.59108647  0.33368975  0.15043666     0.92500
C70         C  0.65123603  0.16206681  0.10218341     0.91700
C71         C  0.58842781  0.17848873  0.15732002     0.83800
C72         C  0.65481728  0.32345666  0.09478204     0.90100
O73         O  0.66343039  0.69338343  0.41323631    -0.73700
O74         O  0.61579959  0.81703055  0.36993680    -0.74600
O75         O  0.66255669  0.81651643  0.41339671    -0.63300
O76         O  0.61655623  0.69490097  0.36864535    -0.71700
O77         O  0.58973869  0.69275545  0.41503897    -0.71200
O78         O  0.63500562  0.81792906  0.45932271    -0.62500
O79         O  0.58849173  0.81433747  0.41583492    -0.75000
O80         O  0.63641891  0.69449673  0.45953183    -0.73800
Cu81       Cu  0.64057979  0.75544942  0.38972556     1.04600
Cu82       Cu  0.61161203  0.75470330  0.43915340     1.04300
C83         C  0.65732535  0.67472489  0.44374266     0.92500
C84         C  0.59438794  0.83446036  0.38573324     0.91700
C85         C  0.65583652  0.83691327  0.44311040     0.83800
C86         C  0.59536368  0.67591501  0.38405812     0.90100
O87         O  0.31345072  0.68113047  0.46167703    -0.73700
O88         O  0.35924809  0.80464969  0.41857305    -0.74600
O89         O  0.31301499  0.80435632  0.46343053    -0.63300
O90         O  0.35891275  0.68368224  0.41697237    -0.71700
O91         O  0.33109070  0.68586850  0.37135688    -0.71200
O92         O  0.28531720  0.80697749  0.41767039    -0.62500
O93         O  0.33137387  0.80747598  0.37308584    -0.75000
O94         O  0.28556537  0.68391256  0.41586036    -0.73800
Cu95       Cu  0.33700239  0.74343670  0.44190624     1.04600
Cu96       Cu  0.30732301  0.74618988  0.39296563     1.04300
C97         C  0.29251854  0.66286438  0.44547345     0.92500
C98         C  0.35331497  0.82332676  0.38799373     0.91700
C99         C  0.29190328  0.82483345  0.44806681     0.83800
C100        C  0.35250024  0.66647983  0.38639544     0.90100
C101        C  0.22536653  0.99634424  0.02301779    -0.03200
O102        O  0.35382184  0.19461630  0.13237675    -0.73700
O103        O  0.30986102  0.31599048  0.08173707    -0.74600
O104        O  0.35480367  0.31626492  0.12921575    -0.63300
O105        O  0.30918337  0.19284898  0.08516653    -0.71700
O106        O  0.27998119  0.19663492  0.12905403    -0.71200
O107        O  0.32647332  0.31924087  0.17397434    -0.62500
O108        O  0.28149461  0.32117254  0.12666579    -0.75000
O109        O  0.32499099  0.19760350  0.17655855    -0.73800
Cu110      Cu  0.33278189  0.25485606  0.10549039     1.04600
Cu111      Cu  0.30213265  0.25886140  0.15301177     1.04300
C112        C  0.34690183  0.17825065  0.16306362     0.92500
C113        C  0.28882861  0.33783097  0.09622267     0.91700
C114        C  0.34854893  0.33531752  0.15949542     0.83800
C115        C  0.28761502  0.17455719  0.10004613     0.90100
C116        C  0.21897648  0.50539013  0.01862418    -0.03200
O117        O  0.44437584  0.92967058  0.28713721    -0.73700
O118        O  0.49814683  0.01011087  0.22676825    -0.74600
O119        O  0.50173861  0.93460081  0.28443030    -0.63300
O120        O  0.44075657  0.00558845  0.22941536    -0.71700
O121        O  0.43975516  0.07941496  0.26635437    -0.71200
O122        O  0.50144313  0.00904614  0.32098234    -0.62500
O123        O  0.49716271  0.08525762  0.26285311    -0.75000
O124        O  0.44384916  0.00320809  0.32438592    -0.73800
Cu125      Cu  0.47126296  0.96732951  0.25577451     1.04600
Cu126      Cu  0.47054832  0.04689186  0.29496404     1.04300
C127        C  0.43541392  0.95344773  0.31493146     0.92500
C128        C  0.50603653  0.06070354  0.23521766     0.91700
C129        C  0.51160155  0.96093916  0.31083934     0.83800
C130        C  0.43067367  0.05399659  0.23911024     0.90100
O131        O  0.50214173  0.58278303  0.27885203    -0.73700
O132        O  0.44376453  0.50824057  0.22102393    -0.74600
O133        O  0.44412244  0.58039305  0.28002326    -0.63300
O134        O  0.50159404  0.50999503  0.21957429    -0.71700
O135        O  0.50184326  0.43200534  0.25392195    -0.71200
O136        O  0.44615214  0.50459331  0.31589072    -0.62500
O137        O  0.44424326  0.43272773  0.25704806    -0.75000
O138        O  0.50416954  0.50534951  0.31329130    -0.73800
Cu139      Cu  0.47292576  0.54817175  0.24873567     1.04600
Cu140      Cu  0.47423557  0.46605312  0.28630158     1.04300
C141        C  0.51295097  0.55539719  0.30452596     0.92500
C142        C  0.43434344  0.45913358  0.23040279     0.91700
C143        C  0.43536455  0.55269229  0.30667104     0.83800
C144        C  0.51044840  0.45938150  0.22710340     0.90100
O145        O  0.82748013  0.18377978  0.37192282    -0.73700
O146        O  0.78184543  0.30602158  0.41845234    -0.74600
O147        O  0.82757626  0.30571045  0.37271394    -0.63300
O148        O  0.78159277  0.18347351  0.41706348    -0.71700
O149        O  0.80930530  0.18084367  0.46300375    -0.71200
O150        O  0.85577717  0.30269483  0.41791506    -0.62500
O151        O  0.81015910  0.30429308  0.46342287    -0.75000
O152        O  0.85489512  0.18132113  0.41792748    -0.73800
Cu153      Cu  0.80360380  0.24483455  0.39348749     1.04600
Cu154      Cu  0.83338598  0.24229274  0.44225100     1.04300
C155        C  0.84874981  0.16411913  0.38728329     0.92500
C156        C  0.78874949  0.32424503  0.44872110     0.91700
C157        C  0.84942514  0.32224947  0.38765563     0.83800
C158        C  0.78821257  0.16287864  0.44692520     0.90100
O159        O  0.83211990  0.80368763  0.17403081    -0.73700
O160        O  0.78409493  0.68779364  0.12562151    -0.74600
O161        O  0.83150950  0.68220518  0.16869629    -0.63300
O162        O  0.78451975  0.81150111  0.13111720    -0.71700
O163        O  0.81051069  0.81675633  0.08389788    -0.71200
O164        O  0.85793069  0.68942015  0.12188527    -0.62500
O165        O  0.81041847  0.69298606  0.07880756    -0.75000
O166        O  0.85753290  0.80988085  0.12641389    -0.73800
Cu167      Cu  0.80698673  0.74609510  0.15139267     1.04600
Cu168      Cu  0.83479532  0.75233577  0.10097286     1.04300
C169        C  0.85291412  0.82370939  0.15815886     0.92500
C170        C  0.79011497  0.67098973  0.09475489     0.91700
C171        C  0.85292580  0.66784563  0.15199055     0.83800
C172        C  0.79050470  0.83540182  0.10192117     0.90100
C173        C  0.23923614  0.46379558  0.03984135    -0.06800
C174        C  0.24418252  0.40653340  0.02719851    -0.18000
C175        C  0.25917107  0.36520526  0.04563434     0.10400
C176        C  0.27217896  0.38059142  0.07676812    -0.06800
C177        C  0.27074764  0.43829732  0.08786571    -0.18000
C178        C  0.25556755  0.48048366  0.06912192     0.10400
S179        S  0.26046154  0.29269574  0.02814838    -0.33000
S180        S  0.25917458  0.55498485  0.08221596    -0.33000
H181        H  0.27430797  0.54524263  0.11293592     0.28400
H182        H  0.25827144  0.26482792  0.06078524     0.28400
H183        H  0.23632519  0.39221557  0.00233318     0.19000
H184        H  0.28236861  0.45055422  0.11070276     0.19000
C185        C  0.41120168  0.43289059  0.21145304    -0.06800
C186        C  0.39183774  0.40273349  0.23115050    -0.18000
C187        C  0.37012494  0.37422287  0.21524358     0.10400
C188        C  0.36793612  0.37356474  0.17826107    -0.06800
C189        C  0.38701829  0.40501240  0.15858714    -0.18000
C190        C  0.40816661  0.43541176  0.17471144     0.10400
S191        S  0.34714834  0.33659566  0.24387042    -0.33000
S192        S  0.43171439  0.47288301  0.14684988    -0.33000
H193        H  0.42478951  0.52753840  0.16044832     0.28400
H194        H  0.32450497  0.36905104  0.23245517     0.28400
H195        H  0.39362055  0.40131748  0.25941603     0.19000
H196        H  0.38572785  0.40528430  0.13028301     0.19000
C197        C  0.36544245  0.13930015  0.18327969    -0.06800
C198        C  0.38536463  0.10801484  0.16484744    -0.18000
C199        C  0.40664423  0.07931803  0.18215501     0.10400
C200        C  0.40818847  0.08105995  0.21905657    -0.06800
C201        C  0.38775999  0.11012663  0.23760248    -0.18000
C202        C  0.36630323  0.13823543  0.22037744     0.10400
S203        S  0.43212207  0.04508156  0.15536140    -0.33000
S204        S  0.34162859  0.17383536  0.24761847    -0.33000
H205        H  0.31972271  0.14312352  0.23313300     0.28400
H206        H  0.45427085  0.06521920  0.17508694     0.28400
H207        H  0.38507844  0.10786052  0.13650753     0.19000
H208        H  0.38846453  0.11086465  0.26594112     0.19000
C209        C  0.24244735  0.04160612  0.04420256    -0.06800
C210        C  0.24152686  0.04464673  0.08119335    -0.18000
C211        C  0.25608075  0.08633401  0.10020287     0.10400
C212        C  0.27141747  0.12873060  0.08239744    -0.06800
C213        C  0.27192058  0.12749779  0.04588294    -0.18000
C214        C  0.25802565  0.08549803  0.02663885     0.10400
S215        S  0.25492323  0.08144666  0.14720211    -0.33000
S216        S  0.26467205  0.09136004  0.48125538    -0.33000
H217        H  0.26981537  0.15106989  0.47796412     0.28400
H218        H  0.28285334  0.09163001  0.15180212     0.28400
H219        H  0.22902932  0.01521351  0.09594815     0.19000
H220        H  0.28383290  0.15957290  0.03214990     0.19000
C221        C  0.27450671  0.62211222  0.46305489    -0.06800
C222        C  0.25540863  0.64666362  0.48500809    -0.18000
C223        C  0.23848203  0.61304995  0.50585809     0.10400
C224        C  0.23823576  0.55069013  0.50175628    -0.06800
C225        C  0.25946648  0.52692563  0.48111962    -0.18000
C226        C  0.27727445  0.56158646  0.46165004     0.10400
S227        S  0.22321434  0.65485321  0.54078160    -0.33000
S228        S  0.30292458  0.52577338  0.43581075    -0.33000
H229        H  0.30830915  0.57186299  0.41278996     0.28400
H230        H  0.21752474  0.70466726  0.52058697     0.28400
H231        H  0.25524160  0.69343130  0.48780341     0.19000
H232        H  0.26151149  0.48040115  0.47878084     0.19000
C233        C  0.27558531  0.87043749  0.46566061    -0.06800
C234        C  0.28920361  0.90915038  0.48732462    -0.18000
C235        C  0.27564969  0.95199131  0.50662993     0.10400
C236        C  0.24656927  0.95943191  0.50265829    -0.06800
C237        C  0.23343662  0.91991527  0.47994734    -0.18000
C238        C  0.24724113  0.87598194  0.46206326     0.10400
S239        S  0.29735511  0.99057488  0.53716406    -0.33000
S240        S  0.22704918  0.82635122  0.43682844    -0.33000
H241        H  0.24117897  0.77653422  0.44812498     0.28400
H242        H  0.32081121  0.95574673  0.53529605     0.28400
H243        H  0.31104350  0.90487928  0.48954003     0.19000
H244        H  0.21159055  0.92196722  0.47690361     0.19000
C245        C  0.41417926  0.92344016  0.33489959    -0.06800
C246        C  0.39406902  0.89500275  0.31568686    -0.18000
C247        C  0.37390171  0.86290180  0.33211065     0.10400
C248        C  0.37283861  0.86073618  0.36914004    -0.06800
C249        C  0.39260739  0.89086587  0.38846147    -0.18000
C250        C  0.41348960  0.92127043  0.37178372     0.10400
S251        S  0.35185093  0.82218666  0.30378045    -0.33000
S252        S  0.43951937  0.95268837  0.39888158    -0.33000
H253        H  0.46114306  0.93832576  0.37648673     0.28400
H254        H  0.35758235  0.76911274  0.32059327     0.28400
H255        H  0.39451536  0.89637837  0.28733917     0.19000
H256        H  0.39242848  0.88899399  0.41678461     0.19000
C257        C  0.41224200  0.57585729  0.32662003    -0.06800
C258        C  0.41203760  0.56922211  0.36309727    -0.18000
C259        C  0.39144320  0.59392501  0.38334739     0.10400
C260        C  0.37102659  0.62786655  0.36689208    -0.06800
C261        C  0.37020959  0.63055363  0.33019934    -0.18000
C262        C  0.39021737  0.60419430  0.30997223     0.10400
S263        S  0.39229730  0.57964198  0.42973494    -0.33000
S264        S  0.38603937  0.60729675  0.26311565    -0.33000
H265        H  0.39541063  0.55042129  0.25748324     0.28400
H266        H  0.36390435  0.57650135  0.43322965     0.28400
H267        H  0.42823582  0.54533177  0.37598892     0.19000
H268        H  0.35427644  0.65475348  0.31698357     0.19000
C269        C  0.57543550  0.87495049  0.36783368    -0.06800
C270        C  0.57572978  0.87600964  0.33112410    -0.18000
C271        C  0.55601247  0.90613091  0.31205684     0.10400
C272        C  0.53484952  0.93512170  0.32978001    -0.06800
C273        C  0.53531430  0.93715456  0.36641743    -0.18000
C274        C  0.55545491  0.90804555  0.38564388     0.10400
S275        S  0.55938149  0.90683020  0.26514683    -0.33000
S276        S  0.55417033  0.91522802  0.43256156    -0.33000
H277        H  0.58244498  0.91594541  0.43711313     0.28400
H278        H  0.55055816  0.96457067  0.26163807     0.28400
H279        H  0.59106123  0.85193006  0.31692601     0.19000
H280        H  0.51949331  0.96044183  0.38022858     0.19000
C281        C  0.57619609  0.63843030  0.36437669    -0.06800
C282        C  0.57496297  0.64530560  0.32786644    -0.18000
C283        C  0.55534943  0.61728145  0.30771162     0.10400
C284        C  0.53578803  0.58181317  0.32419252    -0.06800
C285        C  0.53785017  0.57224722  0.36045929    -0.18000
C286        C  0.55784064  0.59992887  0.38071678     0.10400
S287        S  0.55696628  0.62798494  0.26100216    -0.33000
S288        S  0.56002942  0.58448435  0.42702841    -0.33000
H289        H  0.53835414  0.54511520  0.42860606     0.28400
H290        H  0.54947039  0.57103194  0.25272338     0.28400
H291        H  0.58908725  0.67393551  0.31477259     0.19000
H292        H  0.52332090  0.54403632  0.37305921     0.19000
C293        C  0.57081676  0.37244917  0.16642540    -0.06800
C294        C  0.54354029  0.35528713  0.16443659    -0.18000
C295        C  0.52337015  0.38387368  0.18332382     0.10400
C296        C  0.53043490  0.43149344  0.20433797    -0.06800
C297        C  0.55744364  0.45037928  0.20531581    -0.18000
C298        C  0.57774850  0.42128509  0.18663281     0.10400
S299        S  0.48925814  0.35600476  0.18054102    -0.33000
S300        S  0.61190922  0.44849703  0.18963614    -0.33000
H301        H  0.61986645  0.43064316  0.15604021     0.28400
H302        H  0.47608351  0.40917726  0.18614557     0.28400
H303        H  0.53801498  0.31767899  0.14916553     0.19000
H304        H  0.56289317  0.48697169  0.22142233     0.19000
C305        C  0.56771127  0.14617646  0.17628901    -0.06800
C306        C  0.54462605  0.17714126  0.18688143    -0.18000
C307        C  0.52369567  0.14994709  0.20502728     0.10400
C308        C  0.52604318  0.09047064  0.21321719    -0.06800
C309        C  0.54871635  0.05903600  0.20142826    -0.18000
C310        C  0.56981510  0.08637586  0.18348624     0.10400
S311        S  0.49414482  0.19290031  0.21561870    -0.33000
S312        S  0.59829427  0.04205517  0.17028621    -0.33000
H313        H  0.61718126  0.08640532  0.16474524     0.28400
H314        H  0.47536022  0.14778838  0.21121153     0.28400
H315        H  0.54284615  0.22290576  0.18080069     0.19000
H316        H  0.55037583  0.01313703  0.20700893     0.19000
C317        C  0.70645109  0.95628589  0.49947666    -0.06800
C318        C  0.68315811  0.97639565  0.48127108    -0.18000
C319        C  0.66614812  0.93908814  0.46265185     0.10400
C320        C  0.67332089  0.88036575  0.45960229    -0.06800
C321        C  0.69849819  0.86190513  0.47190617    -0.18000
C322        C  0.71570004  0.89886704  0.49045612     0.10400
S323        S  0.63553728  0.96908164  0.44386799    -0.33000
S324        S  0.75228041  0.87720579  0.99687016    -0.33000
H325        H  0.74759197  0.81820793  0.99019307     0.28400
H326        H  0.63335215  0.92919869  0.41634255     0.28400
H327        H  0.67687592  0.02099289  0.48333179     0.19000
H328        H  0.70476965  0.81784824  0.46662655     0.19000
C329        C  0.66831794  0.11455576  0.08821104    -0.06800
C330        C  0.69644513  0.11941575  0.09136274    -0.18000
C331        C  0.71421334  0.08251679  0.07325356     0.10400
C332        C  0.70369167  0.03822977  0.05071608    -0.06800
C333        C  0.67518497  0.02959194  0.05190119    -0.18000
C334        C  0.65762694  0.06741792  0.06949146     0.10400
S335        S  0.74997084  0.09902694  0.07669361    -0.33000
S336        S  0.62171721  0.05287349  0.06662627    -0.33000
H337        H  0.61469091  0.07877746  0.09850390     0.28400
H338        H  0.74859116  0.13399226  0.10668624     0.28400
H339        H  0.70457570  0.15532321  0.10613366     0.19000
H340        H  0.66581698  0.99357707  0.03890428     0.19000
C341        C  0.74044084  0.96546931  0.05129923    -0.06800
C342        C  0.76880131  0.97379918  0.05536949    -0.18000
C343        C  0.78541033  0.93370698  0.07294870     0.10400
C344        C  0.77385812  0.88421299  0.08843181    -0.06800
C345        C  0.74565341  0.87929207  0.08910242    -0.18000
C346        C  0.72880568  0.91879919  0.07118795     0.10400
S347        S  0.82134376  0.94826985  0.07457041    -0.33000
S348        S  0.69291380  0.90284134  0.07125525    -0.33000
H349        H  0.69287822  0.86616406  0.10074605     0.28400
H350        H  0.82578896  0.92171985  0.10729693     0.28400
H351        H  0.77877927  0.01116526  0.04455931     0.19000
H352        H  0.73684389  0.84171860  0.10168909     0.19000
C353        C  0.73673160  0.04196901  0.50146556    -0.06800
C354        C  0.76060099  0.02287656  0.48431890    -0.18000
C355        C  0.77797847  0.06096042  0.46680729     0.10400
C356        C  0.77063221  0.11952715  0.46342989    -0.06800
C357        C  0.74526504  0.13767327  0.47510861    -0.18000
C358        C  0.72774716  0.09998656  0.49286514     0.10400
S359        S  0.80944181  0.03208494  0.45000459    -0.33000
S360        S  0.69536343  0.13243699  0.99856123    -0.33000
H361        H  0.69918107  0.19000803  0.98748964     0.28400
H362        H  0.81248770  0.07222841  0.42257421     0.28400
H363        H  0.76696622  0.97849585  0.48627034     0.19000
H364        H  0.73912190  0.18197247  0.46983226     0.19000
C365        C  0.67319173  0.36470355  0.07674827    -0.06800
C366        C  0.68995217  0.40092713  0.09664927    -0.18000
C367        C  0.70681470  0.44285265  0.08101944     0.10400
C368        C  0.70455961  0.45390080  0.04412147    -0.06800
C369        C  0.68945239  0.41292504  0.02463324    -0.18000
C370        C  0.67446500  0.36879178  0.04006191     0.10400
S371        S  0.73316009  0.47246245  0.10871739    -0.33000
S372        S  0.65828613  0.31826585  0.01088930    -0.33000
H373        H  0.66547796  0.26907735  0.03085043     0.28400
H374        H  0.72348029  0.45250442  0.14114828     0.28400
H375        H  0.69042584  0.39499793  0.12472664     0.19000
H376        H  0.68875935  0.41611605  0.99644807     0.19000
C377        C  0.70178054  0.53982200  0.50005775    -0.06800
C378        C  0.71551752  0.58083432  0.47863029    -0.18000
C379        C  0.70206804  0.62461993  0.45981142     0.10400
C380        C  0.67358533  0.62866583  0.46125128    -0.06800
C381        C  0.65946833  0.58811428  0.48120998    -0.18000
C382        C  0.67245387  0.54485009  0.50089018     0.10400
S383        S  0.72274447  0.67510331  0.43578654    -0.33000
S384        S  0.64788353  0.50183817  0.52471998    -0.33000
H385        H  0.65918218  0.50636285  0.05629387     0.28400
H386        H  0.70695793  0.72384225  0.44418503     0.28400
H387        H  0.73742653  0.57894097  0.47662172     0.19000
H388        H  0.63747227  0.59087830  0.48190382     0.19000
C389        C  0.73899993  0.54297450  0.04314459    -0.06800
C390        C  0.76731074  0.54732487  0.03621159    -0.18000
C391        C  0.78435505  0.58559407  0.05387871     0.10400
C392        C  0.77331272  0.62611209  0.07733675    -0.06800
C393        C  0.74531756  0.62519713  0.08341765    -0.18000
C394        C  0.72809608  0.58537742  0.06664693     0.10400
S395        S  0.82033011  0.57854170  0.04601663    -0.33000
S396        S  0.69245154  0.58964609  0.07696397    -0.33000
H397        H  0.69284563  0.64168661  0.09593968     0.28400
H398        H  0.82780617  0.58660818  0.08120910     0.28400
H399        H  0.77702278  0.52175308  0.01628320     0.19000
H400        H  0.73682413  0.65665514  0.10129058     0.19000
C401        C  0.73927508  0.45724789  0.49882300    -0.06800
C402        C  0.75806669  0.42260827  0.51795216    -0.18000
C403        C  0.77359303  0.37882446  0.50295570     0.10400
C404        C  0.77190314  0.36885860  0.46667766    -0.06800
C405        C  0.75321987  0.40175009  0.44703836    -0.18000
C406        C  0.73632891  0.44408065  0.46232025     0.10400
S407        S  0.79344365  0.33480312  0.53268639    -0.33000
S408        S  0.70922563  0.47128458  0.43461030    -0.33000
H409        H  0.72224627  0.46220140  0.40236993     0.28400
H410        H  0.78403407  0.28208185  0.51889169     0.28400
H411        H  0.75877469  0.42715768  0.04646042     0.19000
H412        H  0.75098165  0.39241931  0.41946493     0.19000
C413        C  0.17194686  0.86970707  0.07915706    -0.06800
C414        C  0.19957239  0.87379810  0.08791205    -0.18000
C415        C  0.21721825  0.91311427  0.07102373     0.10400
C416        C  0.20709043  0.95279522  0.04510290    -0.06800
C417        C  0.17935722  0.94523023  0.03561199    -0.18000
C418        C  0.16197070  0.90658102  0.05247887     0.10400
S419        S  0.25273408  0.90753359  0.08206510    -0.33000
S420        S  0.12702788  0.90792022  0.03827614    -0.33000
H421        H  0.11680914  0.90882057  0.07245843     0.28400
H422        H  0.24961075  0.87876447  0.11430888     0.28400
H423        H  0.20771880  0.84407647  0.10729583     0.19000
H424        H  0.17039545  0.96881678  0.01403805     0.19000
C425        C  0.16243062  0.61153614  0.08111656    -0.06800
C426        C  0.15969652  0.60884350  0.04483673    -0.18000
C427        C  0.17634232  0.57328936  0.02455317     0.10400
C428        C  0.19690105  0.53786873  0.04083435    -0.06800
C429        C  0.19554815  0.53274107  0.07769853    -0.18000
C430        C  0.17927316  0.57006435  0.09787472     0.10400
S431        S  0.17307841  0.58329319  0.97795420    -0.33000
S432        S  0.18067359  0.56182714  0.14470534    -0.33000
H433        H  0.15303677  0.57487474  0.14991834     0.28400
H434        H  0.15012515  0.61732638  0.47714516     0.28400
H435        H  0.14611594  0.63894596  0.03170829     0.19000
H436        H  0.20751758  0.50064200  0.09140908     0.19000
C437        C  0.03169917  0.57487752  0.21819911    -0.06800
C438        C  0.03297229  0.56958731  0.18169381    -0.18000
C439        C  0.05270109  0.59878069  0.16219969     0.10400
C440        C  0.07154643  0.63502966  0.17942746    -0.06800
C441        C  0.07102174  0.63812465  0.21607097    -0.18000
C442        C  0.05145017  0.60850042  0.23565393     0.10400
S443        S  0.05294388  0.58686775  0.11563034    -0.33000
S444        S  0.05257802  0.61296558  0.28288586    -0.33000
H445        H  0.07433660  0.65198534  0.28537921     0.28400
H446        H  0.08142878  0.58700968  0.11274996     0.28400
H447        H  0.01823319  0.54310596  0.16813428     0.19000
H448        H  0.08557367  0.66528731  0.22939059     0.19000
C449        C  0.86838914  0.36041017  0.36830811    -0.06800
C450        C  0.86839932  0.35713149  0.33160776    -0.18000
C451        C  0.88808019  0.38513880  0.31155249     0.10400
C452        C  0.90885165  0.41670126  0.32833788    -0.06800
C453        C  0.90815315  0.42242406  0.36489001    -0.18000
C454        C  0.88810742  0.39523714  0.38496776     0.10400
S455        S  0.88505594  0.37964379  0.26468628    -0.33000
S456        S  0.88870817  0.40757161  0.43148476    -0.34600
H457        H  0.86027653  0.40964698  0.43496263     0.28400
H458        H  0.89395040  0.43632004  0.25812132     0.28400
H459        H  0.85329691  0.33128326  0.31826410     0.19000
H460        H  0.92357837  0.44770555  0.37802537     0.19000
C461        C  0.91341852  0.57436601  0.21003646    -0.06800
C462        C  0.88745174  0.55036350  0.20614430    -0.18000
C463        C  0.86740355  0.57837203  0.18610198     0.10400
C464        C  0.87357520  0.63114850  0.16918887    -0.06800
C465        C  0.89985411  0.65393584  0.17211901    -0.18000
C466        C  0.91975194  0.62630109  0.19236155     0.10400
S467        S  0.83450074  0.54478025  0.18316563    -0.33000
S468        S  0.95269929  0.65984544  0.19497080    -0.33000
H469        H  0.96752506  0.60770354  0.19655931     0.28400
H470        H  0.82774009  0.56759373  0.15008897     0.28400
H471        H  0.88255091  0.51021599  0.21931083     0.19000
H472        H  0.90466472  0.69478735  0.15951635     0.19000
C473        C  0.03592483  0.92786347  0.21893756    -0.06800
C474        C  0.03798764  0.93706507  0.18273769    -0.18000
C475        C  0.05859265  0.91064984  0.16318571     0.10400
C476        C  0.07715746  0.87226085  0.17973908    -0.06800
C477        C  0.07618849  0.86649085  0.21631094    -0.18000
C478        C  0.05630646  0.89481234  0.23604613     0.10400
S479        S  0.06066619  0.92912186  0.11752884    -0.33000
S480        S  0.05859028  0.88823544  0.28298281    -0.33000
H481        H  0.05088210  0.94602991  0.28944070     0.28400
H482        H  0.08915200  0.93184372  0.11833380     0.28400
H483        H  0.02322622  0.96436630  0.16943202     0.19000
H484        H  0.09061563  0.83851288  0.22970148     0.19000
C485        C  0.91445892  0.91681905  0.21448395    -0.06800
C486        C  0.88720626  0.92256324  0.22449057    -0.18000
C487        C  0.86643388  0.89508427  0.20585545     0.10400
C488        C  0.87306857  0.85966209  0.17695029    -0.06800
C489        C  0.90047963  0.85432084  0.16706331    -0.18000
C490        C  0.92115245  0.88247270  0.18534382     0.10400
S491        S  0.83204751  0.90813534  0.21990775    -0.33000
S492        S  0.95566039  0.86956484  0.17131970    -0.33000
H493        H  0.96719545  0.92028963  0.18475197     0.28400
H494        H  0.82121649  0.91077837  0.18583476     0.28400
H495        H  0.88204573  0.94876180  0.24697421     0.19000
H496        H  0.90604004  0.82652982  0.14543233     0.19000
C497        C  0.90838339  0.06791058  0.32959480    -0.06800
C498        C  0.90677153  0.06059009  0.36599735    -0.18000
C499        C  0.88640993  0.08821186  0.38555158     0.10400
C500        C  0.86748385  0.12494774  0.36830273    -0.06800
C501        C  0.86801101  0.12866006  0.33166578    -0.18000
C502        C  0.88780892  0.09992825  0.31219037     0.10400
S503        S  0.88480496  0.07539708  0.43220183    -0.33000
S504        S  0.88516491  0.10513756  0.26521567    -0.33000
H505        H  0.89434312  0.04838263  0.25897876     0.28400
H506        H  0.90491722  0.03196073  0.43379483     0.28400
H507        H  0.92203272  0.03461001  0.37926493     0.19000
H508        H  0.85325028  0.15539145  0.31794175     0.19000
C509        C  0.16999834  0.37452829  0.46504048    -0.06800
C510        C  0.18507890  0.41371783  0.44476568    -0.18000
C511        C  0.20023805  0.45917947  0.45974091     0.10400
C512        C  0.20073670  0.46578717  0.49708823    -0.06800
C513        C  0.18430642  0.42689566  0.51660583    -0.18000
C514        C  0.16975557  0.38158725  0.50162360     0.10400
S515        S  0.21577072  0.50859404  0.42900592    -0.33000
S516        S  0.15279105  0.33090975  0.53048461    -0.33000
H517        H  0.15880823  0.35799992  0.56243421     0.28400
H518        H  0.21810853  0.46940673  0.40107052     0.28400
H519        H  0.18440239  0.40951719  0.41658467     0.19000
H520        H  0.18611147  0.42556041  0.04290200     0.19000
C521        C  0.17437123  0.11995654  0.46335908    -0.06800
C522        C  0.17267996  0.11652069  0.49977300    -0.18000
C523        C  0.18846225  0.07780987  0.51937651     0.10400
C524        C  0.20770923  0.04034325  0.50246725    -0.06800
C525        C  0.20846636  0.04278995  0.46540289    -0.18000
C526        C  0.19224118  0.08163418  0.44597428     0.10400
S527        S  0.18177127  0.07680780  0.06469082    -0.33000
S528        S  0.19537075  0.07952793  0.39907228    -0.33000
H529        H  0.16721324  0.08266396  0.39295909     0.28400
H530        H  0.17151954  0.13365862  0.06718900     0.28400
H531        H  0.15907082  0.14564548  0.51336316     0.19000
H532        H  0.22259998  0.01642085  0.45090572     0.19000
C533        C  0.07255602  0.36044437  0.36960524    -0.06800
C534        C  0.07375633  0.36336333  0.33291499    -0.18000
C535        C  0.05379882  0.39212844  0.31338712     0.10400
C536        C  0.03152966  0.41815756  0.33057452    -0.06800
C537        C  0.03086302  0.41801872  0.36722395    -0.18000
C538        C  0.05104347  0.38956323  0.38700777     0.10400
S539        S  0.05837980  0.39516934  0.26662164    -0.33000
S540        S  0.04897635  0.39201940  0.43421681    -0.33000
H541        H  0.02363490  0.42013178  0.43642591     0.28400
H542        H  0.04882241  0.45245256  0.26308448     0.28400
H543        H  0.09014502  0.34208259  0.31905534     0.19000
H544        H  0.01408731  0.43918444  0.38030933     0.19000
C545        C  0.07680543  0.12606228  0.36772927    -0.06800
C546        C  0.07426458  0.13343917  0.33143192    -0.18000
C547        C  0.05350788  0.10663708  0.31264360     0.10400
C548        C  0.03380534  0.07336982  0.33053202    -0.06800
C549        C  0.03736953  0.06277969  0.36647273    -0.18000
C550        C  0.05891313  0.08768816  0.38504235     0.10400
S551        S  0.05407025  0.11500460  0.26574590    -0.33000
S552        S  0.06289481  0.06748177  0.43038615    -0.33000
H553        H  0.09143495  0.07067686  0.43025026     0.28400
H554        H  0.04773584  0.05667719  0.25911592     0.28400
H555        H  0.08820167  0.16145616  0.31753272     0.19000
H556        H  0.02322248  0.03512543  0.38027454     0.19000
O557        O  0.11663086  0.30816361  0.86958275    -0.73700
O558        O  0.16339798  0.18447826  0.91418829    -0.74600
O559        O  0.11733035  0.18630085  0.86839186    -0.63300
O560        O  0.16249889  0.30831733  0.91519346    -0.71700
O561        O  0.13449236  0.30586669  0.96040837    -0.71200
O562        O  0.08960739  0.18527011  0.91401457    -0.62500
O563        O  0.13524253  0.18300814  0.95920907    -0.75000
O564        O  0.08901895  0.30658066  0.91528690    -0.73800
Cu565      Cu  0.14104454  0.24686085  0.89028248     1.04600
Cu566      Cu  0.11128860  0.24507547  0.93887465     1.04300
C567        C  0.09508066  0.32572014  0.88495224     0.92500
C568        C  0.15647077  0.16369259  0.94388151     0.91700
C569        C  0.09585491  0.16788908  0.88343679     0.83800
C570        C  0.15545414  0.32651421  0.94538925     0.90100
O571        O  0.94414095  0.99051015  0.72638966    -0.73700
O572        O  0.99967312  0.07443957  0.78295976    -0.74600
O573        O  0.00179912  0.99747019  0.72696086    -0.63300
O574        O  0.94183573  0.06826674  0.78299211    -0.71700
O575        O  0.94377943  0.99553388  0.82103240    -0.71200
O576        O  0.00339554  0.92349316  0.76415473    -0.62500
O577        O  0.00192095  0.00081677  0.82026410    -0.75000
O578        O  0.94528037  0.91739320  0.76442819    -0.73800
Cu579      Cu  0.97169515  0.03523045  0.75358809     1.04600
Cu580      Cu  0.97358714  0.95667768  0.79380551     1.04300
C581        C  0.93579201  0.94106938  0.73669144     0.92500
C582        C  0.01062025  0.04979750  0.80945384     0.91700
C583        C  0.01283242  0.95036972  0.73756089     0.83800
C584        C  0.93291727  0.04284460  0.81036873     0.90100
O585        O  0.00175432  0.50104895  0.72592771    -0.73700
O586        O  0.94341405  0.42392557  0.78194973    -0.74600
O587        O  0.94403513  0.50103862  0.72461103    -0.63300
O588        O  0.00104934  0.42359941  0.78278134    -0.71700
O589        O  0.00080542  0.49650149  0.82028856    -0.71200
O590        O  0.94418183  0.57628598  0.76069280    -0.62500
O591        O  0.94257022  0.49827787  0.81844827    -0.75000
O592        O  0.00177904  0.57387955  0.76365203    -0.73800
Cu593      Cu  0.97251345  0.45977899  0.75262100     1.04600
Cu594      Cu  0.97221616  0.53879734  0.79213805     1.04300
C595        C  0.01150447  0.54901966  0.73666199     0.92500
C596        C  0.93330262  0.44940157  0.80853433     0.91700
C597        C  0.93532567  0.55107498  0.73325460     0.83800
C598        C  0.01084034  0.44846805  0.80971641     0.90100
O599        O  0.11474478  0.69242329  0.67575608    -0.73700
O600        O  0.16352607  0.80833567  0.62809449    -0.74600
O601        O  0.11869477  0.81468933  0.67574454    -0.63300
O602        O  0.15873939  0.68391283  0.62857201    -0.71700
O603        O  0.12896580  0.68854413  0.58513708    -0.71200
O604        O  0.09058360  0.82024518  0.63051130    -0.62500
O605        O  0.13498704  0.81089583  0.58343236    -0.75000
O606        O  0.08553610  0.69944710  0.63178393    -0.73800
Cu607      Cu  0.14007498  0.74983100  0.65355953     1.04600
Cu608      Cu  0.10919901  0.75512522  0.60612808     1.04300
C609        C  0.09236804  0.67782244  0.66130506     0.92500
C610        C  0.15673342  0.82861231  0.59809344     0.91700
C611        C  0.09764751  0.83663651  0.66100260     0.83800
C612        C  0.14939912  0.66421747  0.59976972     0.90100
C613        C  0.72081681  0.49819970  0.52191684    -0.03200
C614        C  0.72112628  0.99806674  0.52589259    -0.03200
O615        O  0.58611718  0.31057277  0.61797943    -0.73700
O616        O  0.63135839  0.17929278  0.58203756    -0.74600
O617        O  0.58392834  0.19039740  0.62245440    -0.63300
O618        O  0.63409656  0.30237773  0.57707585    -0.71700
O619        O  0.65996957  0.30448704  0.62449444    -0.71200
O620        O  0.60892905  0.19424240  0.67082450    -0.62500
O621        O  0.65649177  0.18226444  0.63027851    -0.75000
O622        O  0.61209699  0.31538381  0.66551252    -0.73800
Cu623      Cu  0.60814738  0.24574688  0.59805831     1.04600
Cu624      Cu  0.63535085  0.24925947  0.64938182     1.04300
C625        C  0.59126474  0.33167201  0.64806506     0.92500
C626        C  0.65069352  0.15918059  0.60091414     0.91700
C627        C  0.58822199  0.17572713  0.65418961     0.83800
C628        C  0.65510247  0.32079566  0.59312981     0.90100
O629        O  0.66557154  0.69621969  0.91215309    -0.73700
O630        O  0.61877125  0.81932607  0.86644338    -0.74600
O631        O  0.66556602  0.81990779  0.91097915    -0.63300
O632        O  0.61880402  0.69740617  0.86722510    -0.71700
O633        O  0.59203723  0.69819227  0.91361078    -0.71200
O634        O  0.63779545  0.82318895  0.95661421    -0.62500
O635        O  0.59152185  0.81896580  0.91242539    -0.75000
O636        O  0.63848161  0.69950119  0.95832009    -0.73800
Cu637      Cu  0.64324383  0.75821541  0.88764386     1.04600
Cu638      Cu  0.61420703  0.75997289  0.93694391     1.04300
C639        C  0.65918897  0.67833362  0.94273839     0.92500
C640        C  0.59716895  0.83690362  0.88174258     0.91700
C641        C  0.65881755  0.84130541  0.94048412     0.83800
C642        C  0.59741898  0.67990448  0.88290086     0.90100
O643        O  0.31028632  0.68154923  0.95486546    -0.73700
O644        O  0.35539333  0.80321218  0.90959737    -0.74600
O645        O  0.30980565  0.80405611  0.95539627    -0.63300
O646        O  0.35529931  0.68277946  0.90949750    -0.71700
O647        O  0.32756718  0.68290014  0.86379203    -0.71200
O648        O  0.28148729  0.80607234  0.91030330    -0.62500
O649        O  0.32753613  0.80481418  0.86397987    -0.75000
O650        O  0.28199364  0.68243235  0.90945070    -0.73800
Cu651      Cu  0.33350092  0.74297526  0.93396183     1.04600
Cu652      Cu  0.30354135  0.74417696  0.88530169     1.04300
C653        C  0.28921919  0.66264449  0.93929679     0.92500
C654        C  0.34960666  0.82052775  0.87870308     0.91700
C655        C  0.28839594  0.82415160  0.94063460     0.83800
C656        C  0.34913914  0.66457679  0.87907039     0.90100
C657        C  0.22732774  0.00015021  0.52474498    -0.03200
O658        O  0.35512260  0.19885407  0.63100304    -0.73700
O659        O  0.31044616  0.32113794  0.58318878    -0.74600
O660        O  0.35603975  0.32026393  0.62930408    -0.63300
O661        O  0.30975834  0.19844359  0.58549845    -0.71700
O662        O  0.28117426  0.20162258  0.63010879    -0.71200
O663        O  0.32863966  0.32182197  0.67500410    -0.62500
O664        O  0.28290120  0.32559734  0.62902308    -0.75000
O665        O  0.32683503  0.20037920  0.67589360    -0.73800
Cu666      Cu  0.33368835  0.25969780  0.60558284     1.04600
Cu667      Cu  0.30382032  0.26256217  0.65401200     1.04300
C668        C  0.34852770  0.18158251  0.66158696     0.92500
C669        C  0.28963641  0.34245168  0.59840643     0.91700
C670        C  0.35040365  0.33838545  0.65999147     0.83800
C671        C  0.28840807  0.18004844  0.60083135     0.90100
C672        C  0.21879497  0.50684541  0.52067979    -0.03200
O673        O  0.44400106  0.92195726  0.77909865    -0.73700
O674        O  0.49876424  0.00676032  0.72213292    -0.74600
O675        O  0.50167397  0.92664877  0.77779184    -0.63300
O676        O  0.44135199  0.00211750  0.72340271    -0.71700
O677        O  0.44110701  0.07434797  0.76141787    -0.71200
O678        O  0.50064988  0.99837133  0.81619372    -0.62500
O679        O  0.49838149  0.07854224  0.76077793    -0.75000
O680        O  0.44288198  0.99411857  0.81719623    -0.73800
Cu681      Cu  0.47147378  0.96173096  0.74933786     1.04600
Cu682      Cu  0.47069812  0.03878972  0.79028698     1.04300
C683        C  0.43445259  0.94484168  0.80685731     0.92500
C684        C  0.50718604  0.05589613  0.73260223     0.91700
C685        C  0.51122806  0.95137380  0.80496709     0.83800
C686        C  0.43184297  0.05066415  0.73372122     0.90100
O687        O  0.50431219  0.58463024  0.77833011    -0.73700
O688        O  0.44701121  0.50712249  0.72033501    -0.74600
O689        O  0.44595676  0.58184590  0.77797501    -0.63300
O690        O  0.50471583  0.50953349  0.72005981    -0.71700
O691        O  0.50455345  0.43302767  0.75554815    -0.71200
O692        O  0.44736927  0.50744747  0.81489043    -0.62500
O693        O  0.44698482  0.43299025  0.75745379    -0.75000
O694        O  0.50556901  0.50873403  0.81412342    -0.73800
Cu695      Cu  0.47556777  0.54859354  0.74805164     1.04600
Cu696      Cu  0.47629748  0.46803194  0.78685194     1.04300
C697        C  0.51455927  0.55828721  0.80477160     0.92500
C698        C  0.43748090  0.45841754  0.73027099     0.91700
C699        C  0.43646264  0.55481676  0.80446519     0.83800
C700        C  0.51326414  0.45895243  0.72821515     0.90100
O701        O  0.83022747  0.18758463  0.87279313    -0.73700
O702        O  0.78452999  0.31086806  0.91825584    -0.74600
O703        O  0.83044300  0.30943791  0.87288434    -0.63300
O704        O  0.78410902  0.18874455  0.91757626    -0.71700
O705        O  0.81182232  0.18610160  0.96351849    -0.71200
O706        O  0.85834819  0.30816019  0.91845119    -0.62500
O707        O  0.81238124  0.30947296  0.96373021    -0.75000
O708        O  0.85778530  0.18645212  0.91862210    -0.73800
Cu709      Cu  0.80635611  0.24926349  0.89382765     1.04600
Cu710      Cu  0.83596642  0.24758479  0.94277850     1.04300
C711        C  0.85159745  0.16840206  0.88814926     0.92500
C712        C  0.79096588  0.32888557  0.94873375     0.91700
C713        C  0.85210531  0.32672136  0.88792320     0.83800
C714        C  0.79062617  0.16842076  0.94752132     0.90100
O715        O  0.83206669  0.80354640  0.67397443    -0.73700
O716        O  0.78452354  0.68617677  0.62616584    -0.74600
O717        O  0.83217948  0.68266869  0.66888582    -0.63300
O718        O  0.78420357  0.80956802  0.63182844    -0.71700
O719        O  0.81000808  0.81593156  0.58445272    -0.71200
O720        O  0.85835570  0.69019618  0.62187481    -0.62500
O721        O  0.81049908  0.69260420  0.57912763    -0.75000
O722        O  0.85728157  0.81057155  0.62626120    -0.73800
Cu723      Cu  0.80718417  0.74525038  0.65173487     1.04600
Cu724      Cu  0.83472830  0.75239565  0.60112375     1.04300
C725        C  0.85272454  0.82409819  0.65806386     0.92500
C726        C  0.79038664  0.66993527  0.59512819     0.91700
C727        C  0.85365063  0.66894535  0.65215414     0.83800
C728        C  0.78994171  0.83369364  0.60266001     0.90100
C729        C  0.23853691  0.46562746  0.54266979    -0.06800
C730        C  0.24344231  0.40817863  0.53045720    -0.18000
C731        C  0.25916354  0.36793934  0.54859233     0.10400
C732        C  0.27237118  0.38424991  0.57938312    -0.06800
C733        C  0.27041978  0.44175644  0.59054643    -0.18000
C734        C  0.25486111  0.48319986  0.57183340     0.10400
S735        S  0.26130490  0.29560999  0.53101955    -0.33000
S736        S  0.25772540  0.55778118  0.58519281    -0.33000
H737        H  0.27715270  0.54995596  0.61183328     0.28400
H738        H  0.25896753  0.26791275  0.56367042     0.28400
H739        H  0.23536269  0.39302424  0.50591433     0.19000
H740        H  0.28191249  0.45444367  0.61340183     0.19000
C741        C  0.41444787  0.43205510  0.71144556    -0.06800
C742        C  0.39381096  0.40652745  0.73133992    -0.18000
C743        C  0.37152414  0.37997774  0.71550224     0.10400
C744        C  0.37025257  0.37589879  0.67850358    -0.06800
C745        C  0.39074261  0.40276003  0.65866932    -0.18000
C746        C  0.41240889  0.43146900  0.67465251     0.10400
S747        S  0.34616093  0.35093106  0.74443185    -0.33000
S748        S  0.43790943  0.46256559  0.64680684    -0.33000
H749        H  0.43162447  0.51952722  0.65711585     0.28400
H750        H  0.32501227  0.38328700  0.72886763     0.28400
H751        H  0.39486570  0.40796216  0.75964987     0.19000
H752        H  0.39020594  0.40062707  0.63037644     0.19000
C753        C  0.36712540  0.14211580  0.68086740    -0.06800
C754        C  0.38453844  0.10590120  0.66162271    -0.18000
C755        C  0.40568725  0.07500177  0.67779297     0.10400
C756        C  0.40958397  0.07990211  0.71437040    -0.06800
C757        C  0.39164826  0.11466730  0.73364922    -0.18000
C758        C  0.37047289  0.14508998  0.71757674     0.10400
S759        S  0.42755343  0.03305416  0.64972169    -0.33000
S760        S  0.34981274  0.18986951  0.74540796    -0.33000
H761        H  0.32587976  0.15970759  0.73719799     0.28400
H762        H  0.45181835  0.04899276  0.66634636     0.28400
H763        H  0.38227166  0.10318454  0.63347609     0.19000
H764        H  0.39412264  0.11836145  0.76172704     0.19000
C765        C  0.24370803  0.04638563  0.54577258    -0.06800
C766        C  0.24277536  0.04959032  0.58271729    -0.18000
C767        C  0.25709669  0.09178774  0.60151938     0.10400
C768        C  0.27204136  0.13452479  0.58346585    -0.06800
C769        C  0.27225593  0.13349241  0.54698338    -0.18000
C770        C  0.25873453  0.09088459  0.52798974     0.10400
S771        S  0.25630418  0.08693175  0.64852772    -0.33000
S772        S  0.26352155  0.08623682  0.97975854    -0.33000
H773        H  0.27474583  0.14196295  0.97686982     0.28400
H774        H  0.28430176  0.09679039  0.65269903     0.28400
H775        H  0.23058922  0.01967477  0.59757890     0.19000
H776        H  0.28395033  0.16569913  0.53299231     0.19000
C777        C  0.27172829  0.62196172  0.95781523    -0.06800
C778        C  0.25394835  0.64607730  0.98176506    -0.18000
C779        C  0.23796769  0.61193397  0.00362720     0.10400
C780        C  0.23780034  0.54968218  0.99923898    -0.06800
C781        C  0.25815633  0.52640023  0.97707198    -0.18000
C782        C  0.27449811  0.56151167  0.95586714     0.10400
S783        S  0.22342482  0.65250236  0.03961937    -0.33000
S784        S  0.29818193  0.52642587  0.92680904    -0.33000
H785        H  0.30021944  0.57178916  0.90235203     0.28400
H786        H  0.21904076  0.70479357  0.02129976     0.28400
H787        H  0.25396082  0.69276302  0.98488485     0.19000
H788        H  0.26019166  0.47993911  0.97439278     0.19000
C789        C  0.27223132  0.86920497  0.95932253    -0.06800
C790        C  0.28620707  0.90649770  0.98161822    -0.18000
C791        C  0.27302748  0.94770380  0.00257759     0.10400
C792        C  0.24389646  0.95496262  0.00020658    -0.06800
C793        C  0.23023407  0.91620174  0.97744877    -0.18000
C794        C  0.24373711  0.87404335  0.95753500     0.10400
S795        S  0.29530175  0.98212022  0.03410485    -0.33000
S796        S  0.22308942  0.82534611  0.93228752    -0.33000
H797        H  0.23770091  0.77529747  0.94212633     0.28400
H798        H  0.31942798  0.97868896  0.01456800     0.28400
H799        H  0.30802521  0.90151299  0.98375892     0.19000
H800        H  0.20830816  0.91797159  0.97559619     0.19000
C801        C  0.41273406  0.91460573  0.82607284    -0.06800
C802        C  0.39442622  0.88113382  0.80670245    -0.18000
C803        C  0.37347674  0.85082318  0.82291752     0.10400
C804        C  0.36969185  0.85584017  0.85949066    -0.06800
C805        C  0.38776446  0.89022371  0.87879499    -0.18000
C806        C  0.40949142  0.91849666  0.86270071     0.10400
S807        S  0.35410459  0.80270778  0.79566451    -0.33000
S808        S  0.43335873  0.95494582  0.89073177    -0.33000
H809        H  0.45648753  0.93578145  0.87247401     0.28400
H810        H  0.35768003  0.75532776  0.81841236     0.28400
H811        H  0.39682196  0.87734082  0.77862361     0.19000
H812        H  0.38561534  0.89328646  0.90693280     0.19000
C813        C  0.41228069  0.57757596  0.82277180    -0.06800
C814        C  0.41041498  0.57017685  0.85910610    -0.18000
C815        C  0.38863623  0.59334446  0.87794536     0.10400
C816        C  0.36845104  0.62634504  0.86031393    -0.06800
C817        C  0.36920382  0.62952059  0.82364383    -0.18000
C818        C  0.39062976  0.60516759  0.80474069     0.10400
S819        S  0.38773659  0.57837352  0.92425190    -0.33000
S820        S  0.38872121  0.60987448  0.75770512    -0.33000
H821        H  0.39840917  0.55321158  0.75220442     0.28400
H822        H  0.35924919  0.57496571  0.92596537     0.28400
H823        H  0.42624858  0.54681811  0.87306764     0.19000
H824        H  0.35341865  0.65265527  0.80949159     0.19000
C825        C  0.57739635  0.87402891  0.86265311    -0.06800
C826        C  0.57669904  0.87016132  0.82599834    -0.18000
C827        C  0.55583980  0.89581635  0.80641656     0.10400
C828        C  0.53471041  0.92586539  0.82372697    -0.06800
C829        C  0.53601624  0.93204944  0.86016449    -0.18000
C830        C  0.55703884  0.90698801  0.87974485     0.10400
S831        S  0.55772480  0.88860408  0.75953032    -0.33000
S832        S  0.55625497  0.91885878  0.92631234    -0.33000
H833        H  0.58452574  0.92274047  0.92991202     0.28400
H834        H  0.54811556  0.94476447  0.75227347     0.28400
H835        H  0.59208741  0.84532177  0.81237179     0.19000
H836        H  0.52021236  0.95586217  0.87368895     0.19000
C837        C  0.57781044  0.64216200  0.86400183    -0.06800
C838        C  0.57827020  0.64285539  0.82721778    -0.18000
C839        C  0.55855878  0.61434946  0.80744956     0.10400
C840        C  0.53717785  0.58508210  0.82447582    -0.06800
C841        C  0.53731789  0.58171983  0.86113859    -0.18000
C842        C  0.55737370  0.60961971  0.88112392     0.10400
S843        S  0.56243290  0.61541573  0.76057296    -0.33000
S844        S  0.55676115  0.60189498  0.92820381    -0.33000
H845        H  0.53310308  0.56820598  0.93037599     0.28400
H846        H  0.55316117  0.55848407  0.75597298     0.28400
H847        H  0.59390845  0.66669826  0.81350375     0.19000
H848        H  0.52129051  0.55805484  0.87413741     0.19000
C849        C  0.57112500  0.36948334  0.66463120    -0.06800
C850        C  0.54554147  0.34536694  0.67087050    -0.18000
C851        C  0.52625291  0.37433368  0.69094487     0.10400
C852        C  0.53252359  0.42898197  0.70514726    -0.06800
C853        C  0.55774827  0.45436086  0.69773465    -0.18000
C854        C  0.57725351  0.42487479  0.67782318     0.10400
S855        S  0.49403494  0.33915844  0.69752974    -0.33000
S856        S  0.60943707  0.45968933  0.67032157    -0.33000
H857        H  0.61544138  0.43107469  0.63885058     0.28400
H858        H  0.47858421  0.39042187  0.69576743     0.28400
H859        H  0.54084706  0.30260195  0.66094545     0.19000
H860        H  0.56253306  0.49665182  0.70811512     0.19000
C861        C  0.56802201  0.14039092  0.67240929    -0.06800
C862        C  0.54052131  0.15340536  0.66646613    -0.18000
C863        C  0.52022998  0.12758036  0.68642069     0.10400
C864        C  0.52753791  0.08642438  0.71211226    -0.06800
C865        C  0.55490659  0.07231790  0.71760725    -0.18000
C866        C  0.57525769  0.09858535  0.69787395     0.10400
S867        S  0.48561520  0.14962885  0.67799184    -0.33000
S868        S  0.60982806  0.07577364  0.70574817    -0.33000
H869        H  0.61831580  0.08211981  0.67083342     0.28400
H870        H  0.47595186  0.14159575  0.71216339     0.28400
H871        H  0.53483702  0.18595679  0.64722898     0.19000
H872        H  0.56046179  0.04052476  0.73730166     0.19000
C873        C  0.70842989  0.96128760  0.99840873    -0.06800
C874        C  0.68501734  0.98089816  0.98025845    -0.18000
C875        C  0.66836685  0.94336513  0.96119250     0.10400
C876        C  0.67624466  0.88523929  0.95693146    -0.06800
C877        C  0.70159361  0.86758000  0.96910807    -0.18000
C878        C  0.71822465  0.90446274  0.98870983     0.10400
S879        S  0.63716470  0.97227004  0.94350127    -0.33000
S880        S  0.74977044  0.87112406  0.49787016    -0.33000
H881        H  0.74437855  0.81187244  0.49311227     0.28400
H882        H  0.63533998  0.93372255  0.91523869     0.28400
H883        H  0.67833721  0.02514469  0.98271248     0.19000
H884        H  0.70831311  0.82402166  0.96320650     0.19000
C885        C  0.66742610  0.11069424  0.58802272    -0.06800
C886        C  0.69550761  0.11515885  0.59128931    -0.18000
C887        C  0.71307181  0.07737807  0.57375806     0.10400
C888        C  0.70231108  0.03306094  0.55146232    -0.06800
C889        C  0.67380857  0.02437657  0.55301906    -0.18000
C890        C  0.65646992  0.06274595  0.57047293     0.10400
S891        S  0.74882238  0.09350341  0.57738832    -0.33000
S892        S  0.62054534  0.04792793  0.56946639    -0.33000
H893        H  0.61477662  0.07326339  0.60202541     0.28400
H894        H  0.74747385  0.12475468  0.60886291     0.28400
H895        H  0.70380617  0.15150801  0.60552544     0.19000
H896        H  0.66432570  0.98809780  0.54039967     0.19000
C897        C  0.73903201  0.96082787  0.55174336    -0.06800
C898        C  0.76734529  0.96999184  0.55556245    -0.18000
C899        C  0.78414697  0.93126861  0.57373794     0.10400
C900        C  0.77292721  0.88168769  0.58936101    -0.06800
C901        C  0.74479380  0.87561272  0.59006953    -0.18000
C902        C  0.72765854  0.91425058  0.57199320     0.10400
S903        S  0.81985132  0.94788837  0.57629394    -0.33000
S904        S  0.69181245  0.89748434  0.57232160    -0.33000
H905        H  0.69226193  0.85563955  0.59917752     0.28400
H906        H  0.82397593  0.92222541  0.60935306     0.28400
H907        H  0.77712408  0.00732321  0.54440105     0.19000
H908        H  0.73633976  0.83791309  0.60291679     0.19000
C909        C  0.73865090  0.04729301  0.00121249    -0.06800
C910        C  0.76266012  0.02854640  0.98428336    -0.18000
C911        C  0.78002437  0.06663291  0.96680510     0.10400
C912        C  0.77290588  0.12533832  0.96401656    -0.06800
C913        C  0.74753304  0.14349432  0.97568285    -0.18000
C914        C  0.72971306  0.10537882  0.99263076     0.10400
S915        S  0.81108864  0.03780891  0.94882771    -0.33000
S916        S  0.69361532  0.12767103  0.49963114    -0.33000
H917        H  0.69862498  0.18676017  0.49338850     0.28400
H918        H  0.81248571  0.07628173  0.92027605     0.28400
H919        H  0.76907721  0.98398991  0.98607803     0.19000
H920        H  0.74157957  0.18810609  0.97086492     0.19000
C921        C  0.67361091  0.36207581  0.57552864    -0.06800
C922        C  0.69031879  0.39783984  0.59581482    -0.18000
C923        C  0.70719779  0.44003784  0.58058509     0.10400
C924        C  0.70497930  0.45191271  0.54383566    -0.06800
C925        C  0.68993793  0.41134081  0.52391827    -0.18000
C926        C  0.67502632  0.36675750  0.53889925     0.10400
S927        S  0.73366457  0.46825630  0.60851239    -0.33000
S928        S  0.65912404  0.31654571  0.50926908    -0.33000
H929        H  0.66614240  0.26714473  0.52913647     0.28400
H930        H  0.72071377  0.45789965  0.64067555     0.28400
H931        H  0.69089656  0.39117065  0.62384150     0.19000
H932        H  0.68916292  0.41528579  0.49578311     0.19000
C933        C  0.70204721  0.54097768  0.99922874    -0.06800
C934        C  0.71623508  0.58126066  0.97776975    -0.18000
C935        C  0.70327836  0.62569594  0.95889823     0.10400
C936        C  0.67486234  0.63144736  0.96044594    -0.06800
C937        C  0.66027092  0.59143344  0.98026917    -0.18000
C938        C  0.67276686  0.54715013  0.99972746     0.10400
S939        S  0.72447574  0.67490591  0.93466953    -0.33000
S940        S  0.64779450  0.50427728  0.02287398    -0.33000
H941        H  0.65980106  0.50334801  0.55781352     0.28400
H942        H  0.70960073  0.72471586  0.94367889     0.28400
H943        H  0.73814206  0.57840443  0.97594055     0.19000
H944        H  0.63830743  0.59527939  0.98090937     0.19000
C945        C  0.73915980  0.54182732  0.54345747    -0.06800
C946        C  0.76714081  0.54826506  0.53510798    -0.18000
C947        C  0.78424330  0.58694586  0.55236167     0.10400
C948        C  0.77357576  0.62506907  0.57754799    -0.06800
C949        C  0.74579948  0.62209625  0.58506323    -0.18000
C950        C  0.72850335  0.58245712  0.56820463     0.10400
S951        S  0.81979372  0.58401624  0.54119458    -0.33000
S952        S  0.69299641  0.58554316  0.57935673    -0.33000
H953        H  0.69492801  0.62340214  0.60795905     0.28400
H954        H  0.82886209  0.58830113  0.57602888     0.28400
H955        H  0.77642941  0.52426908  0.51414704     0.19000
H956        H  0.73743326  0.65240803  0.60371821     0.19000
C957        C  0.73911219  0.45756930  0.99900542    -0.06800
C958        C  0.75748477  0.42224747  0.01839217    -0.18000
C959        C  0.77370761  0.37966527  0.00328160     0.10400
C960        C  0.77330782  0.37202019  0.96673897    -0.06800
C961        C  0.75469266  0.40483893  0.94695073    -0.18000
C962        C  0.73665042  0.44479390  0.96239670     0.10400
S963        S  0.79281303  0.33412652  0.03297908    -0.33000
S964        S  0.70924708  0.47059071  0.93461864    -0.33000
H965        H  0.71181988  0.42930834  0.90784882     0.28400
H966        H  0.78447207  0.28218204  0.01711777     0.28400
H967        H  0.76002130  0.42860249  0.54588538     0.19000
H968        H  0.75362611  0.39768957  0.91902618     0.19000
C969        C  0.17414597  0.87269672  0.58022575    -0.06800
C970        C  0.20161557  0.87767423  0.58968545    -0.18000
C971        C  0.21931541  0.91700048  0.57288536     0.10400
C972        C  0.20923644  0.95595404  0.54654692    -0.06800
C973        C  0.18182579  0.94676838  0.53608013    -0.18000
C974        C  0.16440460  0.90829980  0.55283658     0.10400
S975        S  0.25480663  0.91272220  0.58452336    -0.33000
S976        S  0.12971477  0.90842499  0.53756718    -0.33000
H977        H  0.11890214  0.91264507  0.57138696     0.28400
H978        H  0.25260916  0.87370171  0.61270899     0.28400
H979        H  0.20952395  0.84887013  0.60970661     0.19000
H980        H  0.17311514  0.96905970  0.51384783     0.19000
C981        C  0.16271668  0.61489156  0.58179604    -0.06800
C982        C  0.16015072  0.61225597  0.54544590    -0.18000
C983        C  0.17668241  0.57598480  0.52541352     0.10400
C984        C  0.19671902  0.54001152  0.54225579    -0.06800
C985        C  0.19482208  0.53461376  0.57903380    -0.18000
C986        C  0.17883027  0.57263214  0.59889338     0.10400
S987        S  0.17440550  0.58505235  0.47851440    -0.33000
S988        S  0.17972056  0.56442782  0.64576348    -0.33000
H989        H  0.15220821  0.57904456  0.65058503     0.28400
H990        H  0.14565632  0.60077228  0.97781249     0.28400
H991        H  0.14688799  0.64289424  0.53224761     0.19000
H992        H  0.20625685  0.50181691  0.59294930     0.19000
C993        C  0.03404121  0.57649621  0.71765440    -0.06800
C994        C  0.03379727  0.57613667  0.68102749    -0.18000
C995        C  0.05365411  0.60533863  0.66185800     0.10400
C996        C  0.07372959  0.63774985  0.67963812    -0.06800
C997        C  0.07491329  0.63482735  0.71632409    -0.18000
C998        C  0.05556964  0.60380932  0.73547683     0.10400
S999        S  0.05262552  0.59773984  0.61496878    -0.33000
S1000       S  0.05916228  0.59757744  0.78245311    -0.33000
H1001       H  0.08363297  0.62834878  0.78541312     0.28400
H1002       H  0.08102172  0.59420634  0.61125760     0.28400
H1003       H  0.01786193  0.55339491  0.66721231     0.19000
H1004       H  0.09064335  0.65810340  0.73011576     0.19000
C1005       C  0.87093571  0.36459751  0.86831241    -0.06800
C1006       C  0.87194826  0.35806731  0.83183881    -0.18000
C1007       C  0.89129529  0.38665683  0.81162969     0.10400
C1008       C  0.91083730  0.42205932  0.82812096    -0.06800
C1009       C  0.90915918  0.43065667  0.86442828    -0.18000
C1010       C  0.88933940  0.40289126  0.88459220     0.10400
S1011       S  0.88937609  0.37662765  0.76493399    -0.33000
S1012       S  0.88838584  0.41906658  0.93064653    -0.34600
H1013       H  0.85989191  0.41735718  0.93307707     0.28400
H1014       H  0.89580144  0.43434318  0.75678662     0.28400
H1015       H  0.85784564  0.32933884  0.81882981     0.19000
H1016       H  0.92363195  0.45864901  0.87734010     0.19000
C1017       C  0.91499445  0.57987850  0.71098801    -0.06800
C1018       C  0.88860748  0.55736714  0.70994866    -0.18000
C1019       C  0.86830666  0.58366588  0.68960094     0.10400
C1020       C  0.87457697  0.63331634  0.66957175    -0.06800
C1021       C  0.90119014  0.65492589  0.67002868    -0.18000
C1022       C  0.92140118  0.62894425  0.69057046     0.10400
S1023       S  0.83493254  0.55191840  0.69027009    -0.33000
S1024       S  0.95469173  0.66128015  0.69021550    -0.33000
H1025       H  0.96928230  0.60944866  0.69525481     0.28400
H1026       H  0.82794105  0.56826052  0.65589964     0.28400
H1027       H  0.88366454  0.51955730  0.72546101     0.19000
H1028       H  0.90604477  0.69375760  0.65529792     0.19000
C1029       C  0.03686331  0.92739900  0.71903057    -0.06800
C1030       C  0.03907600  0.93694592  0.68289025    -0.18000
C1031       C  0.06052081  0.91312989  0.66375754     0.10400
C1032       C  0.07965446  0.87650182  0.68063792    -0.06800
C1033       C  0.07860892  0.87080741  0.71719054    -0.18000
C1034       C  0.05789032  0.89690654  0.73656435     0.10400
S1035       S  0.06274224  0.93234532  0.61817359    -0.33000
S1036       S  0.05995333  0.89094014  0.78353302    -0.33000
H1037       H  0.05123059  0.94818894  0.78961777     0.28400
H1038       H  0.09125192  0.93482167  0.61875606     0.28400
H1039       H  0.02385738  0.96267974  0.66932058     0.19000
H1040       H  0.09352281  0.84433026  0.73079113     0.19000
C1041       C  0.91485085  0.91136865  0.71634606    -0.06800
C1042       C  0.88793831  0.91381284  0.72803057    -0.18000
C1043       C  0.86685225  0.88945441  0.70845746     0.10400
C1044       C  0.87289880  0.85975954  0.67706602    -0.06800
C1045       C  0.89994720  0.85874547  0.66518301    -0.18000
C1046       C  0.92088660  0.88404738  0.68443973     0.10400
S1047       S  0.83274691  0.90037513  0.72415965    -0.33000
S1048       S  0.95491794  0.87915122  0.66720932    -0.33000
H1049       H  0.96838690  0.87802207  0.69965716     0.28400
H1050       H  0.82147280  0.90885931  0.69063766     0.28400
H1051       H  0.88322661  0.93624303  0.75213527     0.19000
H1052       H  0.90511361  0.83613879  0.64130408     0.19000
C1053       C  0.90997893  0.06873263  0.82988127    -0.06800
C1054       C  0.90967471  0.06445611  0.86651724    -0.18000
C1055       C  0.89001026  0.09370138  0.88645378     0.10400
C1056       C  0.87023403  0.12855015  0.86928430    -0.06800
C1057       C  0.86960307  0.12942598  0.83255355    -0.18000
C1058       C  0.88886087  0.09950300  0.81280248     0.10400
S1059       S  0.89027636  0.08487235  0.93348660    -0.33000
S1060       S  0.88489641  0.10158527  0.76589361    -0.33000
H1061       H  0.89339954  0.04398585  0.76072344     0.28400
H1062       H  0.91472494  0.05332200  0.93592506     0.28400
H1063       H  0.92536103  0.03935808  0.87957273     0.19000
H1064       H  0.85430739  0.15480923  0.81888143     0.19000
C1065       C  0.17124141  0.37260184  0.96289568    -0.06800
C1066       C  0.18450461  0.41435313  0.94253328    -0.18000
C1067       C  0.19942933  0.45999586  0.95752252     0.10400
C1068       C  0.20093179  0.46456191  0.99504046    -0.06800
C1069       C  0.18569929  0.42358001  0.01463106    -0.18000
C1070       C  0.17248615  0.37676602  0.99947936     0.10400
S1071       S  0.21317843  0.51213028  0.92680008    -0.33000
S1072       S  0.15945668  0.32033541  0.02777514    -0.33000
H1073       H  0.17464118  0.33492965  0.05766790     0.28400
H1074       H  0.20995964  0.47993011  0.89594146     0.28400
H1075       H  0.18264315  0.41156711  0.91438030     0.19000
H1076       H  0.18437226  0.42987983  0.54481309     0.19000
C1077       C  0.17324080  0.11851081  0.96184529    -0.06800
C1078       C  0.17190861  0.11586439  0.99831172    -0.18000
C1079       C  0.18756794  0.07677512  0.01791677     0.10400
C1080       C  0.20601998  0.03760066  0.00094356    -0.06800
C1081       C  0.20652232  0.03977974  0.96384697    -0.18000
C1082       C  0.19046405  0.07893841  0.94444910     0.10400
S1083       S  0.18253431  0.07725082  0.56619019    -0.33000
S1084       S  0.19262825  0.07500102  0.89748887    -0.33000
H1085       H  0.16442692  0.08017539  0.89219443     0.28400
H1086       H  0.15776469  0.10785295  0.56630934     0.28400
H1087       H  0.15831827  0.14509698  0.01187558     0.19000
H1088       H  0.22024192  0.01271920  0.94918082     0.19000
C1089       C  0.07586927  0.36428321  0.86610159    -0.06800
C1090       C  0.07339998  0.35719673  0.82985425    -0.18000
C1091       C  0.05326459  0.38597282  0.81075342     0.10400
C1092       C  0.03424110  0.42172200  0.82826463    -0.06800
C1093       C  0.03769764  0.43170600  0.86423629    -0.18000
C1094       C  0.05843829  0.40375050  0.88330876     0.10400
S1095       S  0.05368858  0.37611772  0.76397984    -0.33000
S1096       S  0.06278906  0.41985740  0.92919633    -0.33000
H1097       H  0.04313627  0.46418470  0.93102395     0.28400
H1098       H  0.04863633  0.43493761  0.75636315     0.28400
H1099       H  0.08696276  0.32789540  0.81621892     0.19000
H1100       H  0.02373264  0.46041777  0.87757130     0.19000
C1101       C  0.07685582  0.13017691  0.86426029    -0.06800
C1102       C  0.07353089  0.13976302  0.82824561    -0.18000
C1103       C  0.05252581  0.11334606  0.80948839     0.10400
C1104       C  0.03387444  0.07734400  0.82739650    -0.06800
C1105       C  0.03821637  0.06521092  0.86300297    -0.18000
C1106       C  0.05963521  0.09044768  0.88142112     0.10400
S1107       S  0.05056137  0.12494934  0.76268916    -0.33000
S1108       S  0.06423532  0.06912539  0.92648655    -0.33000
H1109       H  0.09272479  0.07366439  0.92604471     0.28400
H1110       H  0.07456714  0.15720134  0.75915854     0.28400
H1111       H  0.08687507  0.16979004  0.81497564     0.19000
H1112       H  0.02474290  0.03595454  0.87672923     0.19000
loop_ 
_geom_bond_atom_site_label_1 
_geom_bond_atom_site_label_2 
_geom_bond_distance 
_geom_bond_site_symmetry_2 
_ccdc_geom_bond_type 
O1           Cu9   2.017       .  S
O1           C11   1.280       .  A
O2           Cu9   2.024       .  S
O2           C12   1.278       .  A
O3           Cu9   2.017       .  S
O3           C13   1.280       .  A
O4           Cu9   2.026       .  S
O4           C14   1.280       .  A
O5          Cu10   2.003       .  S
O5           C14   1.277       .  A
O6          Cu10   1.996       .  S
O6           C13   1.275       .  A
O7          Cu10   1.999       .  S
O7           C12   1.279       .  A
O8          Cu10   1.995       .  S
O8           C11   1.275       .  A
Cu9         Cu10   2.365       .  S
C11         C533   1.489       .  S
C12         C521   1.491       .  S
C13         C545   1.482       .  S
C14         C509   1.493       .  S
O15         Cu23   2.009   1_565  S
O15          C25   1.277       .  A
O16         Cu23   2.007       .  S
O16          C26   1.278   1_655  A
O17         Cu23   2.008   1_455  S
O17          C27   1.278   1_545  A
O18         Cu23   2.003       .  S
O18          C28   1.277       .  A
O19         Cu24   2.011       .  S
O19          C28   1.278   1_565  A
O20         Cu24   2.007   1_455  S
O20          C27   1.278       .  A
O21         Cu24   2.011   1_455  S
O21          C26   1.278   1_565  A
O22         Cu24   2.010       .  S
O22          C25   1.277       .  A
Cu23        Cu24   2.373   1_545  S
C25         C485   1.468       .  S
C26         C548   1.483       .  S
C27         C473   1.481       .  S
C28         C497   1.479       .  S
O29         Cu37   2.017   1_455  S
O29          C39   1.279       .  A
O30         Cu37   2.014       .  S
O30          C40   1.279       .  A
O31         Cu37   2.004       .  S
O31          C41   1.276       .  A
O32         Cu37   2.002       .  S
O32          C42   1.277   1_655  A
O33         Cu38   2.016       .  S
O33          C42   1.279   1_655  A
O34         Cu38   2.017       .  S
O34          C41   1.279       .  A
O35         Cu38   2.003       .  S
O35          C40   1.277       .  A
O36         Cu38   1.994       .  S
O36          C39   1.276   1_655  A
Cu37        Cu38   2.373       .  S
C39         C437   1.480       .  S
C40         C452   1.480       .  S
C41         C461   1.471       .  S
C42         C536   1.478       .  S
O43         Cu51   2.013       .  S
O43          C53   1.279       .  A
O44         Cu51   2.034       .  S
O44          C54   1.281       .  A
O45         Cu51   2.020       .  S
O45          C55   1.280       .  A
O46         Cu51   2.024       .  S
O46          C56   1.278       .  A
O47         Cu52   1.999       .  S
O47          C56   1.278       .  A
O48         Cu52   2.006       .  S
O48          C55   1.277       .  A
O49         Cu52   2.015       .  S
O49          C54   1.278       .  A
O50         Cu52   2.000       .  S
O50          C53   1.276       .  A
Cu51        Cu52   2.365       .  S
C53         C440   1.482       .  S
C54         C413   1.501       .  S
C55         C476   1.487       .  S
C56         C425   1.489       .  S
C57         C368   1.569       .  S
C57         C389   1.587       .  S
C57         C933   1.577   1_554  S
C57         C957   1.583   1_554  S
C58         C332   1.578       .  S
C58         C341   1.576   1_545  S
C58         C873   1.581   1_544  S
C58         C909   1.581       .  S
O59         Cu67   1.995       .  S
O59          C69   1.276       .  A
O60         Cu67   2.007       .  S
O60          C70   1.277       .  A
O61         Cu67   1.992       .  S
O61          C71   1.275       .  A
O62         Cu67   2.001       .  S
O62          C72   1.277       .  A
O63         Cu68   2.009       .  S
O63          C72   1.278       .  A
O64         Cu68   2.004       .  S
O64          C71   1.277       .  A
O65         Cu68   2.016       .  S
O65          C70   1.279       .  A
O66         Cu68   2.014       .  S
O66          C69   1.279       .  A
Cu67        Cu68   2.374       .  S
C69         C293   1.473       .  S
C70         C329   1.481       .  S
C71         C305   1.459       .  S
C72         C365   1.485       .  S
O73         Cu81   2.023       .  S
O73          C83   1.279       .  A
O74         Cu81   2.012       .  S
O74          C84   1.280       .  A
O75         Cu81   2.000       .  S
O75          C85   1.275       .  A
O76         Cu81   2.006       .  S
O76          C86   1.278       .  A
O77         Cu82   2.019       .  S
O77          C86   1.279       .  A
O78         Cu82   2.018       .  S
O78          C85   1.278       .  A
O79         Cu82   1.988       .  S
O79          C84   1.274       .  A
O80         Cu82   2.000       .  S
O80          C83   1.278       .  A
Cu81        Cu82   2.371       .  S
C83         C380   1.484       .  S
C84         C269   1.482       .  S
C85         C320   1.468       .  S
C86         C281   1.489       .  S
O87         Cu95   1.999       .  S
O87          C97   1.276       .  A
O88         Cu95   2.000       .  S
O88          C98   1.277       .  A
O89         Cu95   2.012       .  S
O89          C99   1.280       .  A
O90         Cu95   1.994       .  S
O90         C100   1.276       .  A
O91         Cu96   1.997       .  S
O91         C100   1.278       .  A
O92         Cu96   2.009       .  S
O92          C99   1.276       .  A
O93         Cu96   1.998       .  S
O93          C98   1.276       .  A
O94         Cu96   1.997       .  S
O94          C97   1.275       .  A
Cu95        Cu96   2.372       .  S
C97         C221   1.459       .  S
C98         C248   1.482       .  S
C99         C233   1.485       .  S
C100        C260   1.478       .  S
C101        C209   1.571   1_565  S
C101        C416   1.593       .  S
C101        C792   1.584       .  S
C101       C1080   1.583   1_565  S
O102       Cu110   2.008       .  S
O102        C112   1.279       .  A
O103       Cu110   2.014       .  S
O103        C113   1.278       .  A
O104       Cu110   2.007       .  S
O104        C114   1.278       .  A
O105       Cu110   2.006       .  S
O105        C115   1.279       .  A
O106       Cu111   2.028       .  S
O106        C115   1.279       .  A
O107       Cu111   2.011       .  S
O107        C114   1.277       .  A
O108       Cu111   2.021       .  S
O108        C113   1.278       .  A
O109       Cu111   2.011       .  S
O109        C112   1.277       .  A
Cu110      Cu111   2.367       .  S
C112        C197   1.490       .  S
C113        C176   1.477       .  S
C114        C188   1.489       .  S
C115        C212   1.491       .  S
C116        C173   1.598       .  S
C116        C428   1.571       .  S
C116        C780   1.568   1_554  S
C116       C1068   1.582   1_554  S
O117       Cu125   1.989       .  S
O117        C127   1.277       .  A
O118       Cu125   1.992   1_545  S
O118        C128   1.275       .  A
O119       Cu125   1.999       .  S
O119        C129   1.277       .  A
O120       Cu125   2.006   1_545  S
O120        C130   1.277       .  A
O121       Cu126   2.008       .  S
O121        C130   1.279       .  A
O122       Cu126   2.010       .  S
O122        C129   1.278   1_545  A
O123       Cu126   2.005       .  S
O123        C128   1.278       .  A
O124       Cu126   2.005       .  S
O124        C127   1.277   1_545  A
Cu125      Cu126   2.375   1_565  S
C127        C245   1.471       .  S
C128        C308   1.468       .  S
C129        C272   1.475       .  S
C130        C200   1.479       .  S
O131       Cu139   2.011       .  S
O131        C141   1.279       .  A
O132       Cu139   2.012       .  S
O132        C142   1.277       .  A
O133       Cu139   2.000       .  S
O133        C143   1.277       .  A
O134       Cu139   2.004       .  S
O134        C144   1.276       .  A
O135       Cu140   2.001       .  S
O135        C144   1.276       .  A
O136       Cu140   1.997       .  S
O136        C143   1.276       .  A
O137       Cu140   2.009       .  S
O137        C142   1.279       .  A
O138       Cu140   2.019       .  S
O138        C141   1.279       .  A
Cu139      Cu140   2.373       .  S
C141        C284   1.486       .  S
C142        C185   1.482       .  S
C143        C257   1.472       .  S
C144        C296   1.464       .  S
O145       Cu153   2.011       .  S
O145        C155   1.280       .  A
O146       Cu153   2.014       .  S
O146        C156   1.279       .  A
O147       Cu153   2.002       .  S
O147        C157   1.278       .  A
O148       Cu153   2.000       .  S
O148        C158   1.276       .  A
O149       Cu154   2.015       .  S
O149        C158   1.278       .  A
O150       Cu154   2.008       .  S
O150        C157   1.278       .  A
O151       Cu154   2.002       .  S
O151        C156   1.277       .  A
O152       Cu154   1.992       .  S
O152        C155   1.275       .  A
Cu153      Cu154   2.370       .  S
C155        C500   1.482       .  S
C156        C404   1.490       .  S
C157        C449   1.484       .  S
C158        C356   1.468       .  S
O159       Cu167   2.017       .  S
O159        C169   1.279       .  A
O160       Cu167   2.018       .  S
O160        C170   1.279       .  A
O161       Cu167   2.010       .  S
O161        C171   1.277       .  A
O162       Cu167   2.018       .  S
O162        C172   1.279       .  A
O163       Cu168   2.009       .  S
O163        C172   1.278       .  A
O164       Cu168   2.003       .  S
O164        C171   1.277       .  A
O165       Cu168   2.014       .  S
O165        C170   1.279       .  A
O166       Cu168   1.996       .  S
O166        C169   1.277       .  A
Cu167      Cu168   2.372       .  S
C169        C488   1.483       .  S
C170        C392   1.488       .  S
C171        C464   1.472       .  S
C172        C344   1.480       .  S
C173        C174   1.429       .  A
C173        C178   1.432       .  A
C174        C175   1.391       .  A
C174        H183   1.079       .  S
C175        C176   1.398       .  A
C175        S179   1.806       .  S
C176        C177   1.401       .  A
C177        C178   1.416       .  A
C177        H184   1.082       .  S
C178        S180   1.802       .  S
S179        H182   1.406       .  S
S180        H181   1.406       .  S
C185        C186   1.402       .  A
C185        C190   1.413       .  A
C186        C187   1.398       .  A
C186        H195   1.084       .  S
C187        C188   1.418       .  A
C187        S191   1.800       .  S
C188        C189   1.408       .  A
C189        C190   1.402       .  A
C189        H196   1.084       .  S
C190        S192   1.799       .  S
S191        H194   1.408       .  S
S192        H193   1.407       .  S
C197        C198   1.408       .  A
C197        C202   1.419       .  A
C198        C199   1.400       .  A
C198        H207   1.084       .  S
C199        C200   1.414       .  A
C199        S203   1.803       .  S
C200        C201   1.402       .  A
C201        C202   1.399       .  A
C201        H208   1.084       .  S
C202        S204   1.800       .  S
S203        H206   1.407       .  S
S204        H205   1.408       .  S
C209        C210   1.417       .  A
C209        C214   1.439       .  A
C210        C211   1.406       .  A
C210        H219   1.078       .  S
C211        C212   1.413       .  A
C211        S215   1.801       .  S
C212        C213   1.397       .  A
C213        C214   1.400       .  A
C213        H220   1.082       .  S
C214        S772   1.813   1_554  S
S215        H218   1.407       .  S
S216        C770   1.811       .  S
S216        H217   1.407       .  S
C221        C222   1.383       .  A
C221        C226   1.404       .  A
C222        C223   1.392       .  A
C222        H231   1.085       .  S
C223        C224   1.448       .  A
C223        S227   1.813       .  S
C224        C672   1.572       .  S
C224        C225   1.421       .  A
C225        C226   1.403       .  A
C225        H232   1.082       .  S
C226        S228   1.805       .  S
S227        H230   1.408       .  S
S228        H229   1.404       .  S
C233        C234   1.394       .  A
C233        C238   1.408       .  A
C234        C235   1.404       .  A
C234        H243   1.083       .  S
C235        C236   1.449       .  A
C235        S239   1.820       .  S
C236        C657   1.580   1_565  S
C236        C237   1.419       .  A
C237        C238   1.400       .  A
C237        H244   1.083       .  S
C238        S240   1.802       .  S
S239        H242   1.406       .  S
S240        H241   1.407       .  S
C245        C246   1.399       .  A
C245        C250   1.411       .  A
C246        C247   1.391       .  A
C246        H255   1.084       .  S
C247        C248   1.418       .  A
C247        S251   1.803       .  S
C248        C249   1.409       .  A
C249        C250   1.401       .  A
C249        H256   1.084       .  S
C250        S252   1.803       .  S
S251        H254   1.408       .  S
S252        H253   1.407       .  S
C257        C258   1.402       .  A
C257        C262   1.412       .  A
C258        C259   1.398       .  A
C258        H267   1.084       .  S
C259        C260   1.416       .  A
C259        S263   1.803       .  S
C260        C261   1.404       .  A
C261        C262   1.393       .  A
C261        H268   1.084       .  S
C262        S264   1.804       .  S
S263        H266   1.407       .  S
S264        H265   1.407       .  S
C269        C270   1.404       .  A
C269        C274   1.420       .  A
C270        C271   1.394       .  A
C270        H279   1.084       .  S
C271        C272   1.412       .  A
C271        S275   1.802       .  S
C272        C273   1.402       .  A
C273        C274   1.400       .  A
C273        H280   1.084       .  S
C274        S276   1.803       .  S
S275        H278   1.405       .  S
S276        H277   1.403       .  S
C281        C282   1.405       .  A
C281        C286   1.415       .  A
C282        C283   1.397       .  A
C282        H291   1.084       .  S
C283        C284   1.415       .  A
C283        S287   1.804       .  S
C284        C285   1.406       .  A
C285        C286   1.409       .  A
C285        H292   1.082       .  S
C286        S288   1.807       .  S
S287        H290   1.404       .  S
S288        H289   1.407       .  S
C293        C294   1.404       .  A
C293        C298   1.412       .  A
C294        C295   1.395       .  A
C294        H303   1.084       .  S
C295        C296   1.409       .  A
C295        S299   1.805       .  S
C296        C297   1.402       .  A
C297        C298   1.401       .  A
C297        H304   1.082       .  S
C298        S300   1.802       .  S
S299        H302   1.403       .  S
S300        H301   1.407       .  S
C305        C306   1.401       .  A
C305        C310   1.409       .  A
C306        C307   1.394       .  A
C306        H315   1.083       .  S
C307        C308   1.411       .  A
C307        S311   1.805       .  S
C308        C309   1.405       .  A
C309        C310   1.398       .  A
C309        H316   1.082       .  S
C310        S312   1.806       .  S
S311        H314   1.407       .  S
S312        H313   1.402       .  S
C317        C614   1.576       .  S
C317        C318   1.415       .  A
C317        C322   1.443       .  A
C318        C319   1.400       .  A
C318        H327   1.076   1_565  S
C319        C320   1.404       .  A
C319        S323   1.802       .  S
C320        C321   1.389       .  A
C321        C322   1.399       .  A
C321        H328   1.081       .  S
C322        S880   1.814       .  S
S323        H326   1.405       .  S
S324        C878   1.814       .  S
S324        H325   1.406       .  S
C329        C330   1.395       .  A
C329        C334   1.408       .  A
C330        C331   1.404       .  A
C330        H339   1.083       .  S
C331        C332   1.438       .  A
C331        S335   1.808       .  S
C332        C333   1.420       .  A
C333        C334   1.401       .  A
C333        H340   1.076   1_545  S
C334        S336   1.805       .  S
S335        H338   1.407       .  S
S336        H337   1.403       .  S
C341        C342   1.419       .  A
C341        C346   1.438       .  A
C342        C343   1.400       .  A
C342        H351   1.076   1_565  S
C343        C344   1.407       .  A
C343        S347   1.804       .  S
C344        C345   1.395       .  A
C345        C346   1.405       .  A
C345        H352   1.083       .  S
C346        S348   1.808       .  S
S347        H350   1.407       .  S
S348        H349   1.407       .  S
C353        C614   1.579   1_545  S
C353        C354   1.417       .  A
C353        C358   1.444       .  A
C354        C355   1.399       .  A
C354        H363   1.072   1_545  S
C355        C356   1.403       .  A
C355        S359   1.805       .  S
C356        C357   1.391       .  A
C357        C358   1.402       .  A
C357        H364   1.083       .  S
C358        S916   1.815       .  S
S359        H362   1.405       .  S
S360        C914   1.815       .  S
S360        H361   1.406       .  S
C365        C366   1.403       .  A
C365        C370   1.407       .  A
C366        C367   1.410       .  A
C366        H375   1.082       .  S
C367        C368   1.436       .  A
C367        S371   1.811       .  S
C368        C369   1.419       .  A
C369        C370   1.391       .  A
C369        H376   1.080   1_554  S
C370        S372   1.804       .  S
S371        H374   1.406       .  S
S372        H373   1.408       .  S
C377        C613   1.575       .  S
C377        C378   1.424       .  A
C377        C382   1.449       .  A
C378        C379   1.401       .  A
C378        H387   1.083       .  S
C379        C380   1.407       .  A
C379        S383   1.801       .  S
C380        C381   1.394       .  A
C381        C382   1.399       .  A
C381        H388   1.085       .  S
C382        S384   1.814       .  S
S383        H386   1.403       .  S
S384        H941   1.394       .  S
H385        S940   1.395       .  S
C389        C390   1.424       .  A
C389        C394   1.435       .  A
C390        C391   1.397       .  A
C390        H399   1.077       .  S
C391        C392   1.407       .  A
C391        S395   1.805       .  S
C392        C393   1.399       .  A
C393        C394   1.409       .  A
C393        H400   1.082       .  S
C394        S396   1.803       .  S
S395        H398   1.408       .  S
S396        H397   1.406       .  S
C401        C613   1.582       .  S
C401        C402   1.419       .  A
C401        C406   1.437       .  A
C402        C403   1.391       .  A
C402        H967   1.082       .  S
C403        C404   1.409       .  A
C403        S407   1.804       .  S
C404        C405   1.404       .  A
C405        C406   1.410       .  A
C405        H412   1.082       .  S
C406        S408   1.810       .  S
S407        H410   1.408       .  S
S408        H409   1.407       .  S
H411        C958   1.081       .  S
C413        C414   1.404       .  A
C413        C418   1.411       .  A
C414        C415   1.415       .  A
C414        H423   1.082       .  S
C415        C416   1.433       .  A
C415        S419   1.802       .  S
C416        C417   1.424       .  A
C417        C418   1.396       .  A
C417        H424   1.078       .  S
C418        S420   1.803       .  S
S419        H422   1.407       .  S
S420        H421   1.402       .  S
C425        C426   1.395       .  A
C425        C430   1.414       .  A
C426        C427   1.396       .  A
C426        H435   1.083       .  S
C427        C428   1.437       .  A
C427        S431   1.802   1_554  S
C428        C429   1.416       .  A
C429        C430   1.408       .  A
C429        H436   1.078       .  S
C430        S432   1.801       .  S
S431        H990   1.408       .  S
S432        H433   1.407       .  S
H434        S987   1.406       .  S
C437        C438   1.403       .  A
C437        C442   1.415       .  A
C438        C439   1.400       .  A
C438        H447   1.084       .  S
C439        C440   1.416       .  A
C439        S443   1.803       .  S
C440        C441   1.403       .  A
C441        C442   1.401       .  A
C441        H448   1.082       .  S
C442        S444   1.810       .  S
S443        H446   1.408       .  S
S444        H445   1.407       .  S
C449        C450   1.406       .  A
C449        C454   1.416       .  A
C450        C451   1.397       .  A
C450        H459   1.084       .  S
C451        C452   1.413       .  A
C451        S455   1.803       .  S
C452        C453   1.405       .  A
C453        C454   1.401       .  A
C453        H460   1.084       .  S
C454        S456   1.803       .  S
S455        H458   1.403       .  S
S456        H457   1.408       .  S
C461        C462   1.404       .  A
C461        C466   1.410       .  A
C462        C463   1.402       .  A
C462        H471   1.081       .  S
C463        C464   1.411       .  A
C463        S467   1.803       .  S
C464        C465   1.404       .  A
C465        C466   1.397       .  A
C465        H472   1.084       .  S
C466        S468   1.804       .  S
S467        H470   1.406       .  S
S468        H469   1.405       .  S
C473        C474   1.403       .  A
C473        C478   1.415       .  A
C474        C475   1.401       .  A
C474        H483   1.084       .  S
C475        C476   1.416       .  A
C475        S479   1.798       .  S
C476        C477   1.405       .  A
C477        C478   1.399       .  A
C477        H484   1.084       .  S
C478        S480   1.803       .  S
S479        H482   1.405       .  S
S480        H481   1.408       .  S
C485        C486   1.402       .  A
C485        C490   1.409       .  A
C486        C487   1.401       .  A
C486        H495   1.083       .  S
C487        C488   1.415       .  A
C487        S491   1.802       .  S
C488        C489   1.408       .  A
C489        C490   1.398       .  A
C489        H496   1.084       .  S
C490        S492   1.807       .  S
S491        H494   1.407       .  S
S492        H493   1.403       .  S
C497        C498   1.404       .  A
C497        C502   1.414       .  A
C498        C499   1.404       .  A
C498        H507   1.083       .  S
C499        C500   1.416       .  A
C499        S503   1.809       .  S
C500        C501   1.403       .  A
C501        C502   1.395       .  A
C501        H508   1.084       .  S
C502        S504   1.804       .  S
S503        H506   1.407       .  S
S504        H505   1.405       .  S
C509        C510   1.405       .  A
C509        C514   1.409       .  A
C510        C511   1.413       .  A
C510        H519   1.083       .  S
C511        C512   1.437       .  A
C511        S515   1.808       .  S
C512        C672   1.586       .  S
C512        C513   1.422       .  A
C513        C514   1.395       .  A
C513       H1076   1.081       .  S
C514        S516   1.813       .  S
S515        H518   1.407       .  S
S516        H517   1.406       .  S
H520       C1069   1.082       .  S
C521        C522   1.397       .  A
C521        C526   1.414       .  A
C522        C523   1.396       .  A
C522        H531   1.082       .  S
C523        C524   1.437       .  A
C523       S1083   1.814       .  S
C524        C657   1.581       .  S
C524        C525   1.419       .  A
C525        C526   1.406       .  A
C525        H532   1.078       .  S
C526        S528   1.801       .  S
S527       C1079   1.812       .  S
S527        H530   1.407       .  S
S528        H529   1.407       .  S
C533        C534   1.406       .  A
C533        C538   1.420       .  A
C534        C535   1.396       .  A
C534        H543   1.083       .  S
C535        C536   1.413       .  A
C535        S539   1.804       .  S
C536        C537   1.402       .  A
C537        C538   1.406       .  A
C537        H544   1.082       .  S
C538        S540   1.809       .  S
S539        H542   1.407       .  S
S540        H541   1.407       .  S
C545        C546   1.403       .  A
C545        C550   1.416       .  A
C546        C547   1.397       .  A
C546        H555   1.084       .  S
C547        C548   1.416       .  A
C547        S551   1.803       .  S
C548        C549   1.405       .  A
C549        C550   1.402       .  A
C549        H556   1.084       .  S
C550        S552   1.803       .  S
S551        H554   1.407       .  S
S552        H553   1.408       .  S
O557       Cu565   2.010       .  S
O557        C567   1.279       .  A
O558       Cu565   2.022       .  S
O558        C568   1.278       .  A
O559       Cu565   2.010       .  S
O559        C569   1.279       .  A
O560       Cu565   2.014       .  S
O560        C570   1.278       .  A
O561       Cu566   1.993       .  S
O561        C570   1.276       .  A
O562       Cu566   1.993       .  S
O562        C569   1.276       .  A
O563       Cu566   2.004       .  S
O563        C568   1.279       .  A
O564       Cu566   2.000       .  S
O564        C567   1.276       .  A
Cu565      Cu566   2.370       .  S
C567       C1089   1.479       .  S
C568       C1077   1.491       .  S
C569       C1101   1.477       .  S
C570       C1065   1.482       .  S
O571       Cu579   2.001   1_565  S
O571        C581   1.276       .  A
O572       Cu579   1.998       .  S
O572        C582   1.276   1_655  A
O573       Cu579   1.999   1_465  S
O573        C583   1.277       .  A
O574       Cu579   2.003       .  S
O574        C584   1.278       .  A
O575       Cu580   2.011       .  S
O575        C584   1.278   1_565  A
O576       Cu580   2.008   1_455  S
O576        C583   1.278       .  A
O577       Cu580   2.006   1_445  S
O577        C582   1.278       .  A
O578       Cu580   2.010       .  S
O578        C581   1.277       .  A
Cu579      Cu580   2.373   1_545  S
C581       C1041   1.465       .  S
C582       C1104   1.481       .  S
C583       C1029   1.478       .  S
C584       C1053   1.480       .  S
O585       Cu593   2.009   1_455  S
O585        C595   1.278       .  A
O586       Cu593   2.002       .  S
O586        C596   1.277       .  A
O587       Cu593   1.998       .  S
O587        C597   1.275       .  A
O588       Cu593   1.993   1_455  S
O588        C598   1.276       .  A
O589       Cu594   2.016   1_455  S
O589        C598   1.279       .  A
O590       Cu594   2.018       .  S
O590        C597   1.279       .  A
O591       Cu594   2.008       .  S
O591        C596   1.278       .  A
O592       Cu594   1.993   1_455  S
O592        C595   1.276       .  A
Cu593      Cu594   2.373       .  S
C595        C993   1.473       .  S
C596       C1008   1.480       .  S
C597       C1017   1.467       .  S
C598       C1092   1.482       .  S
O599       Cu607   2.011       .  S
O599        C609   1.279       .  A
O600       Cu607   2.028       .  S
O600        C610   1.280       .  A
O601       Cu607   2.017       .  S
O601        C611   1.280       .  A
O602       Cu607   2.019       .  S
O602        C612   1.279       .  A
O603       Cu608   1.988       .  S
O603        C612   1.277       .  A
O604       Cu608   1.993       .  S
O604        C611   1.275       .  A
O605       Cu608   2.009       .  S
O605        C610   1.278       .  A
O606       Cu608   1.995       .  S
O606        C609   1.276       .  A
Cu607      Cu608   2.366       .  S
C609        C996   1.482       .  S
C610        C969   1.498       .  S
C611       C1032   1.482       .  S
C612        C981   1.483       .  S
C613        C924   1.567       .  S
C613        C945   1.588       .  S
C614        C888   1.572   1_565  S
C614        C897   1.573       .  S
O615       Cu623   1.998       .  S
O615        C625   1.276       .  A
O616       Cu623   2.007       .  S
O616        C626   1.278       .  A
O617       Cu623   1.984       .  S
O617        C627   1.275       .  A
O618       Cu623   1.999       .  S
O618        C628   1.277       .  A
O619       Cu624   2.003       .  S
O619        C628   1.277       .  A
O620       Cu624   1.998       .  S
O620        C627   1.277       .  A
O621       Cu624   2.001       .  S
O621        C626   1.277       .  A
O622       Cu624   2.004       .  S
O622        C625   1.276       .  A
Cu623      Cu624   2.375       .  S
C625        C849   1.465       .  S
C626        C885   1.474       .  S
C627        C861   1.465       .  S
C628        C921   1.482       .  S
O629       Cu637   2.025       .  S
O629        C639   1.279       .  A
O630       Cu637   2.016       .  S
O630        C640   1.280       .  A
O631       Cu637   2.013       .  S
O631        C641   1.278       .  A
O632       Cu637   2.012       .  S
O632        C642   1.279       .  A
O633       Cu638   2.011       .  S
O633        C642   1.277       .  A
O634       Cu638   2.016       .  S
O634        C641   1.278       .  A
O635       Cu638   1.987       .  S
O635        C640   1.274       .  A
O636       Cu638   2.003       .  S
O636        C639   1.278       .  A
Cu637      Cu638   2.369       .  S
C639        C936   1.486       .  S
C640        C825   1.482       .  S
C641        C876   1.474       .  S
C642        C837   1.491       .  S
O643       Cu651   1.992       .  S
O643        C653   1.275       .  A
O644       Cu651   1.993       .  S
O644        C654   1.276       .  A
O645       Cu651   2.005       .  S
O645        C655   1.279       .  A
O646       Cu651   1.990       .  S
O646        C656   1.275       .  A
O647       Cu652   2.018       .  S
O647        C656   1.280       .  A
O648       Cu652   2.034       .  S
O648        C655   1.280       .  A
O649       Cu652   2.008       .  S
O649        C654   1.278       .  A
O650       Cu652   2.004       .  S
O650        C653   1.276       .  A
Cu651      Cu652   2.372       .  S
C653        C777   1.459       .  S
C654        C804   1.479       .  S
C655        C789   1.492       .  S
C656        C816   1.482       .  S
C657        C765   1.565       .  S
C657        C972   1.592   1_545  S
O658       Cu666   1.999       .  S
O658        C668   1.277       .  A
O659       Cu666   2.005       .  S
O659        C669   1.277       .  A
O660       Cu666   2.002       .  S
O660        C670   1.278       .  A
O661       Cu666   2.000       .  S
O661        C671   1.279       .  A
O662       Cu667   2.020       .  S
O662        C671   1.278       .  A
O663       Cu667   2.008       .  S
O663        C670   1.277       .  A
O664       Cu667   2.014       .  S
O664        C669   1.277       .  A
O665       Cu667   2.003       .  S
O665        C668   1.276       .  A
Cu666      Cu667   2.369       .  S
C668        C753   1.481       .  S
C669        C732   1.471       .  S
C670        C744   1.489       .  S
C671        C768   1.485       .  S
C672        C729   1.593       .  S
C672        C984   1.565       .  S
O673       Cu681   1.995       .  S
O673        C683   1.277       .  A
O674       Cu681   1.995   1_545  S
O674        C684   1.275       .  A
O675       Cu681   2.006       .  S
O675        C685   1.278       .  A
O676       Cu681   2.006   1_545  S
O676        C686   1.277       .  A
O677       Cu682   1.997       .  S
O677        C686   1.278       .  A
O678       Cu682   1.999   1_565  S
O678        C685   1.277       .  A
O679       Cu682   1.996       .  S
O679        C684   1.275       .  A
O680       Cu682   2.002   1_565  S
O680        C683   1.277       .  A
Cu681      Cu682   2.375   1_565  S
C683        C801   1.476       .  S
C684        C864   1.456       .  S
C685        C828   1.478       .  S
C686        C756   1.479       .  S
O687       Cu695   2.012       .  S
O687        C697   1.279       .  A
O688       Cu695   2.008       .  S
O688        C698   1.277       .  A
O689       Cu695   2.007       .  S
O689        C699   1.278       .  A
O690       Cu695   2.005       .  S
O690        C700   1.276       .  A
O691       Cu696   2.007       .  S
O691        C700   1.278       .  A
O692       Cu696   2.002       .  S
O692        C699   1.277       .  A
O693       Cu696   2.003       .  S
O693        C698   1.278       .  A
O694       Cu696   2.016       .  S
O694        C697   1.278       .  A
Cu695      Cu696   2.373       .  S
C697        C840   1.483       .  S
C698        C741   1.477       .  S
C699        C813   1.478       .  S
C700        C852   1.469       .  S
O701       Cu709   2.013       .  S
O701        C711   1.280       .  A
O702       Cu709   2.013       .  S
O702        C712   1.279       .  A
O703       Cu709   1.997       .  S
O703        C713   1.277       .  A
O704       Cu709   1.996       .  S
O704        C714   1.275       .  A
O705       Cu710   2.017       .  S
O705        C714   1.278       .  A
O706       Cu710   2.011       .  S
O706        C713   1.278       .  A
O707       Cu710   2.007       .  S
O707        C712   1.277       .  A
O708       Cu710   2.000       .  S
O708        C711   1.276       .  A
Cu709      Cu710   2.370       .  S
C711       C1056   1.486       .  S
C712        C960   1.490       .  S
C713       C1005   1.481       .  S
C714        C912   1.468       .  S
O715       Cu723   2.014       .  S
O715        C725   1.279       .  A
O716       Cu723   2.020       .  S
O716        C726   1.279       .  A
O717       Cu723   2.000       .  S
O717        C727   1.277       .  A
O718       Cu723   2.008       .  S
O718        C728   1.277       .  A
O719       Cu724   2.002       .  S
O719        C728   1.277       .  A
O720       Cu724   2.003       .  S
O720        C727   1.277       .  A
O721       Cu724   2.014       .  S
O721        C726   1.279       .  A
O722       Cu724   1.995       .  S
O722        C725   1.277       .  A
Cu723      Cu724   2.372       .  S
C725       C1044   1.484       .  S
C726        C948   1.490       .  S
C727       C1020   1.471       .  S
C728        C900   1.473       .  S
C729        C730   1.427       .  A
C729        C734   1.434       .  A
C730        C731   1.388       .  A
C730        H739   1.079       .  S
C731        C732   1.398       .  A
C731        S735   1.805       .  S
C732        C733   1.399       .  A
C733        C734   1.413       .  A
C733        H740   1.082       .  S
C734        S736   1.804       .  S
S735        H738   1.405       .  S
S736        H737   1.406       .  S
C741        C742   1.402       .  A
C741        C746   1.410       .  A
C742        C743   1.398       .  A
C742        H751   1.084       .  S
C743        C744   1.419       .  A
C743        S747   1.801       .  S
C744        C745   1.408       .  A
C745        C746   1.400       .  A
C745        H752   1.083       .  S
C746        S748   1.799       .  S
S747        H750   1.408       .  S
S748        H749   1.407       .  S
C753        C754   1.406       .  A
C753        C758   1.415       .  A
C754        C755   1.400       .  A
C754        H763   1.084       .  S
C755        C756   1.416       .  A
C755        S759   1.804       .  S
C756        C757   1.403       .  A
C757        C758   1.394       .  A
C757        H764   1.084       .  S
C758        S760   1.800       .  S
S759        H762   1.404       .  S
S760        H761   1.407       .  S
C765        C766   1.416       .  A
C765        C770   1.438       .  A
C766        C767   1.405       .  A
C766        H775   1.078       .  S
C767        C768   1.412       .  A
C767        S771   1.801       .  S
C768        C769   1.395       .  A
C769        C770   1.396       .  A
C769        H776   1.083       .  S
S771        H774   1.407       .  S
S772        H773   1.406       .  S
C777        C778   1.385       .  A
C777        C782   1.403       .  A
C778        C779   1.394   1_556  A
C778        H787   1.084       .  S
C779        C780   1.447   1_554  A
C779        S783   1.815       .  S
C780        C781   1.419       .  A
C781        C782   1.402       .  A
C781        H788   1.082       .  S
C782        S784   1.804       .  S
S783        H786   1.408       .  S
S784        H785   1.405       .  S
C789        C790   1.397       .  A
C789        C794   1.409       .  A
C790        C791   1.404   1_556  A
C790        H799   1.083       .  S
C791        C792   1.446       .  A
C791        S795   1.816       .  S
C792        C793   1.421   1_554  A
C793        C794   1.404       .  A
C793        H800   1.083       .  S
C794        S796   1.801       .  S
S795        H798   1.407       .  S
S796        H797   1.407       .  S
C801        C802   1.403       .  A
C801        C806   1.413       .  A
C802        C803   1.395       .  A
C802        H811   1.084       .  S
C803        C804   1.416       .  A
C803        S807   1.801       .  S
C804        C805   1.406       .  A
C805        C806   1.399       .  A
C805        H812   1.084       .  S
C806        S808   1.803       .  S
S807        H810   1.404       .  S
S808        H809   1.408       .  S
C813        C814   1.402       .  A
C813        C818   1.415       .  A
C814        C815   1.399       .  A
C814        H823   1.084       .  S
C815        C816   1.417       .  A
C815        S819   1.803       .  S
C816        C817   1.404       .  A
C817        C818   1.398       .  A
C817        H824   1.083       .  S
C818        S820   1.803       .  S
S819        H822   1.407       .  S
S820        H821   1.407       .  S
C825        C826   1.405       .  A
C825        C830   1.418       .  A
C826        C827   1.397       .  A
C826        H835   1.084       .  S
C827        C828   1.415       .  A
C827        S831   1.804       .  S
C828        C829   1.402       .  A
C829        C830   1.398       .  A
C829        H836   1.084       .  S
C830        S832   1.803       .  S
S831        H834   1.404       .  S
S832        H833   1.402       .  S
C837        C838   1.407       .  A
C837        C842   1.419       .  A
C838        C839   1.398       .  A
C838        H847   1.084       .  S
C839        C840   1.413       .  A
C839        S843   1.803       .  S
C840        C841   1.404       .  A
C841        C842   1.408       .  A
C841        H848   1.083       .  S
C842        S844   1.808       .  S
S843        H846   1.405       .  S
S844        H845   1.406       .  S
C849        C850   1.401       .  A
C849        C854   1.410       .  A
C850        C851   1.393       .  A
C850        H859   1.085       .  S
C851        C852   1.411       .  A
C851        S855   1.804       .  S
C852        C853   1.405       .  A
C853        C854   1.403       .  A
C853        H860   1.082       .  S
C854        S856   1.804       .  S
S855        H858   1.405       .  S
S856        H857   1.406       .  S
C861        C862   1.404       .  A
C861        C866   1.411       .  A
C862        C863   1.393       .  A
C862        H871   1.084       .  S
C863        C864   1.408       .  A
C863        S867   1.804       .  S
C864        C865   1.400       .  A
C865        C866   1.395       .  A
C865        H872   1.083       .  S
C866        S868   1.804       .  S
S867        H870   1.403       .  S
S868        H869   1.407       .  S
C873        C874   1.416       .  A
C873        C878   1.445       .  A
C874        C875   1.401       .  A
C874        H883   1.076   1_565  S
C875        C876   1.405       .  A
C875        S879   1.801       .  S
C876        C877   1.390       .  A
C877        C878   1.402       .  A
C877        H884   1.082       .  S
S879        H882   1.406       .  S
S880        H881   1.407       .  S
C885        C886   1.393       .  A
C885        C890   1.406       .  A
C886        C887   1.399       .  A
C886        H895   1.083       .  S
C887        C888   1.437       .  A
C887        S891   1.807       .  S
C888        C889   1.420       .  A
C889        C890   1.400       .  A
C889        H896   1.076   1_545  S
C890        S892   1.804       .  S
S891        H894   1.407       .  S
S892        H893   1.407       .  S
C897        C898   1.419       .  A
C897        C902   1.439       .  A
C898        C899   1.396       .  A
C898        H907   1.076   1_565  S
C899        C900   1.405       .  A
C899        S903   1.804       .  S
C900        C901   1.394       .  A
C901        C902   1.403       .  A
C901        H908   1.083       .  S
C902        S904   1.809       .  S
S903        H906   1.407       .  S
S904        H905   1.406       .  S
C909        C910   1.416   1_554  A
C909        C914   1.445   1_554  A
C910        C911   1.398       .  A
C910        H919   1.076   1_545  S
C911        C912   1.401       .  A
C911        S915   1.804       .  S
C912        C913   1.391       .  A
C913        C914   1.403       .  A
C913        H920   1.084       .  S
S915        H918   1.406       .  S
S916        H917   1.406       .  S
C921        C922   1.403       .  A
C921        C926   1.406       .  A
C922        C923   1.409       .  A
C922        H931   1.082       .  S
C923        C924   1.434       .  A
C923        S927   1.809       .  S
C924        C925   1.420       .  A
C925        C926   1.389       .  A
C925        H932   1.080       .  S
C926        S928   1.804       .  S
S927        H930   1.407       .  S
S928        H929   1.408       .  S
C933        C934   1.424       .  A
C933        C938   1.449       .  A
C934        C935   1.401       .  A
C934        H943   1.083       .  S
C935        C936   1.407       .  A
C935        S939   1.801       .  S
C936        C937   1.395       .  A
C937        C938   1.400       .  A
C937        H944   1.085       .  S
C938        S940   1.812   1_556  S
S939        H942   1.405       .  S
C945        C946   1.424       .  A
C945        C950   1.434       .  A
C946        C947   1.397       .  A
C946        H955   1.078       .  S
C947        C948   1.408       .  A
C947        S951   1.804       .  S
C948        C949   1.401       .  A
C949        C950   1.410       .  A
C949        H956   1.082       .  S
C950        S952   1.802       .  S
S951        H954   1.408       .  S
S952        H953   1.406       .  S
C957        C958   1.420   1_556  A
C957        C962   1.437       .  A
C958        C959   1.392       .  A
C959        C960   1.409   1_554  A
C959        S963   1.804       .  S
C960        C961   1.404       .  A
C961        C962   1.410       .  A
C961        H968   1.082       .  S
C962        S964   1.812       .  S
S963        H966   1.408       .  S
S964        H965   1.407       .  S
C969        C970   1.405       .  A
C969        C974   1.410       .  A
C970        C971   1.415       .  A
C970        H979   1.082       .  S
C971        C972   1.433       .  A
C971        S975   1.805       .  S
C972        C973   1.424       .  A
C973        C974   1.393       .  A
C973        H980   1.079       .  S
C974        S976   1.804       .  S
S975        H978   1.406       .  S
S976        H977   1.403       .  S
C981        C982   1.397       .  A
C981        C986   1.411       .  A
C982        C983   1.397       .  A
C982        H991   1.082       .  S
C983        C984   1.436       .  A
C983        S987   1.807       .  S
C984        C985   1.414       .  A
C985        C986   1.403       .  A
C985        H992   1.079       .  S
C986        S988   1.802       .  S
S988        H989   1.407       .  S
C993        C994   1.400       .  A
C993        C998   1.412       .  A
C994        C995   1.398       .  A
C994       H1003   1.084       .  S
C995        C996   1.417       .  A
C995        S999   1.803       .  S
C996        C997   1.405       .  A
C997        C998   1.401       .  A
C997       H1004   1.082       .  S
C998       S1000   1.809       .  S
S999       H1002   1.408       .  S
S1000      H1001   1.407       .  S
C1005      C1006   1.404       .  A
C1005      C1010   1.414       .  A
C1006      C1007   1.395       .  A
C1006      H1015   1.084       .  S
C1007      C1008   1.415       .  A
C1007      S1011   1.804       .  S
C1008      C1009   1.406       .  A
C1009      C1010   1.401       .  A
C1009      H1016   1.084       .  S
C1010      S1012   1.802       .  S
S1011      H1014   1.404       .  S
S1012      H1013   1.407       .  S
C1017      C1018   1.403       .  A
C1017      C1022   1.410       .  A
C1018      C1019   1.400       .  A
C1018      H1027   1.082       .  S
C1019      C1020   1.411       .  A
C1019      S1023   1.803       .  S
C1020      C1021   1.405       .  A
C1021      C1022   1.397       .  A
C1021      H1028   1.084       .  S
C1022      S1024   1.805       .  S
S1023      H1026   1.407       .  S
S1024      H1025   1.404       .  S
C1029      C1030   1.403       .  A
C1029      C1034   1.415       .  A
C1030      C1031   1.398       .  A
C1030      H1039   1.084       .  S
C1031      C1032   1.415       .  A
C1031      S1035   1.800       .  S
C1032      C1033   1.404       .  A
C1033      C1034   1.398       .  A
C1033      H1040   1.083       .  S
C1034      S1036   1.803       .  S
S1035      H1038   1.406       .  S
S1036      H1037   1.408       .  S
C1041      C1042   1.401       .  A
C1041      C1046   1.407       .  A
C1042      C1043   1.400       .  A
C1042      H1051   1.084       .  S
C1043      C1044   1.416       .  A
C1043      S1047   1.802       .  S
C1044      C1045   1.409       .  A
C1045      C1046   1.397       .  A
C1045      H1052   1.084       .  S
C1046      S1048   1.806       .  S
S1047      H1050   1.408       .  S
S1048      H1049   1.405       .  S
C1053      C1054   1.404       .  A
C1053      C1058   1.413       .  A
C1054      C1055   1.406       .  A
C1054      H1063   1.083       .  S
C1055      C1056   1.418       .  A
C1055      S1059   1.809       .  S
C1056      C1057   1.405       .  A
C1057      C1058   1.396       .  A
C1057      H1064   1.084       .  S
C1058      S1060   1.804       .  S
S1059      H1062   1.407       .  S
S1060      H1061   1.407       .  S
C1065      C1066   1.401       .  A
C1065      C1070   1.404       .  A
C1066      C1067   1.410       .  A
C1066      H1075   1.082       .  S
C1067      C1068   1.441       .  A
C1067      S1071   1.813       .  S
C1068      C1069   1.422   1_556  A
C1069      C1070   1.392   1_554  A
C1070      S1072   1.810   1_556  S
S1071      H1074   1.406       .  S
S1072      H1073   1.407       .  S
C1077      C1078   1.397       .  A
C1077      C1082   1.413       .  A
C1078      C1079   1.398   1_556  A
C1078      H1087   1.083   1_556  S
C1079      C1080   1.437       .  A
C1080      C1081   1.419   1_554  A
C1081      C1082   1.406       .  A
C1081      H1088   1.078       .  S
C1082      S1084   1.802       .  S
S1083      H1086   1.406       .  S
S1084      H1085   1.408       .  S
C1089      C1090   1.401       .  A
C1089      C1094   1.414       .  A
C1090      C1091   1.394       .  A
C1090      H1099   1.084       .  S
C1091      C1092   1.417       .  A
C1091      S1095   1.804       .  S
C1092      C1093   1.406       .  A
C1093      C1094   1.406       .  A
C1093      H1100   1.083       .  S
C1094      S1096   1.807       .  S
S1095      H1098   1.408       .  S
S1096      H1097   1.407       .  S
C1101      C1102   1.403       .  A
C1101      C1106   1.413       .  A
C1102      C1103   1.401       .  A
C1102      H1111   1.083       .  S
C1103      C1104   1.417       .  A
C1103      S1107   1.810       .  S
C1104      C1105   1.404       .  A
C1105      C1106   1.398       .  A
C1105      H1112   1.084       .  S
C1106      S1108   1.803       .  S
S1107      H1110   1.407       .  S
S1108      H1109   1.408       .  S
