geometry optimzed in LAMMPS
_audit_creation_date              2020-12-01 
_audit_creation_method            'lammps2cif' 
_symmetry_space_group_name_H-M    'P1' 
_symmetry_Int_Tables_number       1 
_symmetry_cell_setting            triclinic 
loop_ 
_symmetry_equiv_pos_as_xyz 
  x,y,z 
_cell_length_a                    41.79928589 
_cell_length_b                    41.76128454892662 
_cell_length_c                    41.399173232561395 
_cell_angle_alpha                 89.93923698214992 
_cell_angle_beta                  90.04202657766453 
_cell_angle_gamma                 90.04450588997032 
loop_ 
_atom_site_label 
_atom_site_type_symbol 
_atom_site_fract_x 
_atom_site_fract_y 
_atom_site_fract_z 
_atom_site_charge 
Fe1        Fe  0.22712836  0.99144732  0.18546498     1.65800
Fe2        Fe  0.30743123  0.99536909  0.18397696     1.73200
Fe3        Fe  0.26721981  0.99816497  0.25620293     1.54400
O4          O  0.23307870  0.03469233  0.25719292    -0.82200
O5          O  0.33010720  0.96497550  0.21569450    -0.80500
O6          O  0.20086952  0.01775295  0.21831405    -0.84700
O7          O  0.21609074  0.95036661  0.21020334    -0.79600
O8          O  0.30307791  0.03284839  0.25714991    -0.81300
O9          O  0.29572025  0.95435692  0.15827855    -0.84100
C10         C  0.21464713  0.94700615  0.24071239     0.96700
C11         C  0.20597930  0.03466313  0.24318320     1.04100
O12         O  0.26749223  0.99504877  0.20880890    -1.13100
O13         O  0.28887611  0.02667497  0.14917225    -0.75500
O14         O  0.23716752  0.03317141  0.16117458    -0.79000
O15         O  0.23062229  0.96425483  0.26040574    -0.79700
C16         C  0.26269881  0.04228589  0.14723005     0.95600
O17         O  0.24465473  0.96355284  0.14793950    -0.77600
O18         O  0.32430168  0.03532325  0.20778627    -0.82800
C19         C  0.32441339  0.95297124  0.24327444     0.98200
C20         C  0.32203342  0.04540953  0.23662250     1.04100
O21         O  0.30101222  0.96176198  0.26083844    -0.78500
C22         C  0.27010592  0.94772192  0.14349672     1.02400
Fe23       Fe  0.77876337  0.00709737  0.17974128     1.65800
Fe24       Fe  0.70017512  0.99335765  0.17018385     1.73200
Fe25       Fe  0.73159099  0.00641134  0.24513332     1.54400
O26         O  0.76538438  0.97126379  0.25455872    -0.82200
O27         O  0.67055315  0.02422010  0.19537990    -0.80500
O28         O  0.80176316  0.98770067  0.21914803    -0.84700
O29         O  0.78307747  0.05210829  0.19865633    -0.79600
O30         O  0.69591839  0.97124615  0.24762807    -0.81300
O31         O  0.71061525  0.03255792  0.14171855    -0.84100
C32         C  0.78416087  0.05777183  0.22867337     0.96700
C33         C  0.79395284  0.97187401  0.24410550     1.04100
O34         O  0.73659120  0.00198144  0.19847875    -1.13100
O35         O  0.72600768  0.96073094  0.14189360    -0.75500
O36         O  0.77605797  0.96232000  0.16057474    -0.79000
O37         O  0.76789120  0.04153047  0.24905724    -0.79700
C38         C  0.75396811  0.94873033  0.14463076     0.95600
O39         O  0.76306370  0.02749830  0.13741322    -0.77600
O40         O  0.68586958  0.95487440  0.19740970    -0.82800
C41         C  0.67404820  0.04345985  0.21895702     0.98200
C42         C  0.68275339  0.95195857  0.22774724     1.04100
O43         O  0.69755838  0.04186465  0.23853169    -0.78500
C44         C  0.73732222  0.04211930  0.13115261     1.02400
Fe45       Fe  0.17836334  0.22305444  0.00684252     1.65800
Fe46       Fe  0.17835156  0.30247243  0.00902639     1.73200
Fe47       Fe  0.24903565  0.26152203  0.01310024     1.54400
O48         O  0.24736088  0.22302904  0.04602099    -0.82200
O49         O  0.20513382  0.31950519  0.97096774    -0.80500
O50         O  0.19564638  0.20924740  0.05123237    -0.84700
O51         O  0.21406382  0.19744417  0.98547016    -0.79600
O52         O  0.24901117  0.29324844  0.05173639    -0.81300
O53         O  0.14536038  0.28531011  0.97472089    -0.84100
C54         C  0.24107371  0.20238050  0.97275762     0.96700
C55         C  0.22494760  0.20681010  0.05940322     1.04100
O56         O  0.20249860  0.26256550  0.00938358    -1.13100
O57         O  0.15178448  0.28762833  0.04875585    -0.75500
O58         O  0.13782467  0.24123772  0.02824988    -0.79000
O59         O  0.25520373  0.22918186  0.97526210    -0.79700
C60         C  0.13604920  0.26179237  0.05053787     0.95600
O61         O  0.16156847  0.23612010  0.96204372    -0.77600
O62         O  0.20760139  0.32523230  0.04190314    -0.82800
C63         C  0.23486698  0.31767146  0.96451453     0.98200
C64         C  0.23252705  0.31810595  0.05781988     1.04100
O65         O  0.25403087  0.29919950  0.97987958    -0.78500
C66         C  0.14608427  0.26148547  0.95538096     1.02400
Fe67       Fe  0.16731974  0.77735728  0.00892875     1.65800
Fe68       Fe  0.15560203  0.69852215  0.00696643     1.73200
Fe69       Fe  0.23169066  0.72861035  0.00738621     1.54400
O70         O  0.23789243  0.76657589  0.97419550    -0.82200
O71         O  0.17712803  0.67829387  0.04651665    -0.80500
O72         O  0.18929649  0.78822992  0.96623618    -0.84700
O73         O  0.20483689  0.79782254  0.03346257    -0.79600
O74         O  0.22945965  0.69637977  0.96863009    -0.81300
O75         O  0.12341892  0.72066724  0.03872299    -0.84100
C76         C  0.22970909  0.78866958  0.04820763     0.96700
C77         C  0.21888752  0.78582780  0.95956133     1.04100
O78         O  0.18535033  0.73457288  0.00785469    -1.13100
O79         O  0.13356515  0.71619557  0.96616457    -0.75500
O80         O  0.12619730  0.76544382  0.98367666    -0.79000
O81         O  0.23998684  0.76013579  0.04584302    -0.79700
C82         C  0.12168544  0.74380284  0.96273602     0.95600
O83         O  0.14596569  0.76713483  0.05223570    -0.77600
O84         O  0.18296432  0.67146430  0.97589692    -0.82800
C85         C  0.20620171  0.67598808  0.05526385     0.98200
C86         C  0.20948610  0.67444335  0.96134775     1.04100
O87         O  0.22889553  0.69122667  0.04125636    -0.78500
C88         C  0.12675022  0.74429320  0.05793672     1.02400
Fe89       Fe  0.00292598  0.17188712  0.77437312     1.65800
Fe90       Fe  0.00510625  0.17567760  0.69240069     1.73200
Fe91       Fe  0.00329322  0.24546225  0.73785451     1.54400
O92         O  0.96670889  0.24662901  0.77175419    -0.82200
O93         O  0.04011018  0.20570232  0.67515239    -0.80500
O94         O  0.96733810  0.19830636  0.79453693    -0.84700
O95         O  0.03790278  0.19849977  0.79635120    -0.79600
O96         O  0.96836311  0.24940438  0.70216451    -0.81300
O97         O  0.04207521  0.14511910  0.70570965    -0.84100
C98         C  0.04848879  0.22688048  0.79471742     0.96700
C99         C  0.95592583  0.22616480  0.79164357     1.04100
O100        O  0.00386032  0.19785358  0.73483332    -1.13100
O101        O  0.96931741  0.14296854  0.70384438    -0.75500
O102        O  0.96688190  0.14299010  0.75746023    -0.79000
O103        O  0.03790717  0.24736708  0.77455188    -0.79700
C104        C  0.95603345  0.13483315  0.73012734     0.95600
O105        O  0.03918811  0.14262297  0.75925562    -0.77600
O106        O  0.96908843  0.20393825  0.67395240    -0.82800
C107        C  0.05097207  0.23329765  0.68172291     0.98200
C108        C  0.95755135  0.23142725  0.67983421     1.04100
O109        O  0.03974892  0.25063243  0.70424792    -0.78500
C110        C  0.05278321  0.13585899  0.73283318     1.02400
Fe111      Fe  0.00105164  0.17477991  0.23366597     1.65800
Fe112      Fe  0.00036697  0.17425770  0.31483378     1.73200
Fe113      Fe  0.00205051  0.24551975  0.27337291     1.54400
O114        O  0.03477992  0.24664097  0.23510423    -0.82200
O115        O  0.96267111  0.20124329  0.33255862    -0.80500
O116        O  0.04312223  0.19592190  0.21975478    -0.84700
O117        O  0.97647182  0.20904119  0.20857826    -0.79600
O118        O  0.03973414  0.24721481  0.30543499    -0.81300
O119        O  0.96567364  0.14183985  0.29757918    -0.84100
C120        C  0.96221185  0.23518281  0.21386683     0.96700
C121        C  0.04887035  0.22579051  0.21764543     1.04100
O122        O  0.00120240  0.19842797  0.27420675    -1.13100
O123        O  0.03895638  0.14541073  0.30147698    -0.75500
O124        O  0.02655962  0.13576301  0.25047783    -0.79000
O125        O  0.96426350  0.24946305  0.24082370    -0.79700
C126        C  0.04345031  0.13035716  0.27528347     0.95600
O127        O  0.95819114  0.15405791  0.24559954    -0.77600
O128        O  0.03393334  0.20397558  0.33667495    -0.82800
C129        C  0.95525138  0.23069564  0.33030698     0.98200
C130        C  0.04762270  0.23034574  0.32971048     1.04100
O131        O  0.96930363  0.24983465  0.31098406    -0.78500
C132        C  0.94916294  0.14068005  0.27159077     1.02400
Fe133      Fe  0.99914857  0.83915888  0.24384490     1.65800
Fe134      Fe  0.99680491  0.83838673  0.32469526     1.73200
Fe135      Fe  0.00325100  0.76835579  0.28238409     1.54400
O136        O  0.97110360  0.76604248  0.24280882    -0.82200
O137        O  0.03556130  0.81483985  0.34314479    -0.80500
O138        O  0.95809060  0.81663887  0.22990313    -0.84700
O139        O  0.02520494  0.80659045  0.21742102    -0.79600
O140        O  0.96502688  0.76227991  0.31360280    -0.81300
O141        O  0.02986379  0.87310458  0.30892277    -0.84100
C142        C  0.04302107  0.78316151  0.22428359     0.96700
C143        C  0.95451125  0.78652033  0.22682581     1.04100
O144        O  0.99945094  0.81496356  0.28396616    -1.13100
O145        O  0.95702620  0.86390551  0.31029983    -0.75500
O146        O  0.97279845  0.87722952  0.26123522    -0.79000
O147        O  0.04205753  0.76934849  0.25144538    -0.79700
C148        C  0.95404460  0.88044087  0.28495633     0.95600
O149        O  0.04074583  0.86020397  0.25767912    -0.77600
O150        O  0.96471601  0.80606759  0.34456590    -0.82800
C151        C  0.04788774  0.78732871  0.33991103     0.98200
C152        C  0.95395812  0.77857075  0.33701273     1.04100
O153        O  0.03661734  0.76650332  0.32040052    -0.78500
C154        C  0.04833118  0.87322246  0.28430516     1.02400
Fe155      Fe  0.83881706  0.77338292  0.00865178     1.65800
Fe156      Fe  0.84169922  0.69332686  0.00966572     1.73200
Fe157      Fe  0.76988218  0.73148945  0.00133171     1.54400
O158        O  0.76198516  0.76195314  0.04044761    -0.82200
O159        O  0.81381587  0.66947537  0.97659690    -0.80500
O160        O  0.80312477  0.79516028  0.03385520    -0.84700
O161        O  0.81937100  0.78855368  0.96597874    -0.79600
O162        O  0.76503345  0.69246993  0.03242620    -0.81300
O163        O  0.86954553  0.70694793  0.97054419    -0.84100
C164        C  0.78999306  0.78989709  0.95833950     0.96700
C165        C  0.77685206  0.78772463  0.04704900     1.04100
O166        O  0.81650817  0.73266361  0.00660035    -1.13100
O167        O  0.87360228  0.71133071  0.04441197    -0.75500
O168        O  0.85833925  0.76160037  0.05220530    -0.79000
O169        O  0.76909332  0.77097398  0.97017763    -0.79700
C170        C  0.87293338  0.73670556  0.06143452     0.95600
O171        O  0.87835352  0.75768684  0.98339988    -0.77600
O172        O  0.81406470  0.67698840  0.04732853    -0.82800
C173        C  0.79082642  0.67643266  0.95786175     0.98200
C174        C  0.78379809  0.67600103  0.05017896     1.04100
O175        O  0.77355753  0.70122981  0.96172353    -0.78500
C176        C  0.88298800  0.73365421  0.96530908     1.02400
Fe177      Fe  0.22760737  0.99754965  0.83530867     1.65800
Fe178      Fe  0.30739785  0.99695805  0.83654780     1.73200
Fe179      Fe  0.26741335  0.00039296  0.76489434     1.54400
O180        O  0.23758390  0.96095237  0.76055343    -0.82200
O181        O  0.33028083  0.02917898  0.80601163    -0.80500
O182        O  0.20340245  0.97375268  0.79943062    -0.84700
O183        O  0.21467025  0.04043424  0.81520707    -0.79600
O184        O  0.30667863  0.96975707  0.76061324    -0.81300
O185        O  0.29453447  0.03606227  0.86375474    -0.84100
C186        C  0.21171685  0.04627659  0.78520794     0.96700
C187        C  0.21032813  0.95872373  0.77381506     1.04100
O188        O  0.26766924  0.99826665  0.81200818    -1.13100
O189        O  0.28945523  0.96381330  0.87028624    -0.75500
O190        O  0.23920373  0.95413998  0.85508289    -0.79000
O191        O  0.22755606  0.03116195  0.76368416    -0.79700
C192        C  0.26437051  0.94633872  0.87031052     0.95600
O193        O  0.24480492  0.02190869  0.87533378    -0.77600
O194        O  0.32328135  0.95861655  0.81064626    -0.82800
C195        C  0.32207917  0.04590837  0.78164611     0.98200
C196        C  0.32371421  0.95375882  0.78046168     1.04100
O197        O  0.29693798  0.04003081  0.76537429    -0.78500
C198        C  0.26904199  0.03968760  0.87971016     1.02400
Fe199      Fe  0.00090725  0.82982902  0.77271608     1.65800
Fe200      Fe  0.00498993  0.83078972  0.69278439     1.73200
Fe201      Fe  0.99746716  0.75934438  0.73296966     1.54400
O202        O  0.02978770  0.75581062  0.77193818    -0.82200
O203        O  0.96452665  0.81001065  0.67492342    -0.80500
O204        O  0.04112745  0.80624499  0.78717776    -0.84700
O205        O  0.97431664  0.79723229  0.79776367    -0.79600
O206        O  0.03534325  0.75400545  0.70076556    -0.81300
O207        O  0.97579485  0.86789117  0.70981556    -0.84100
C208        C  0.95901054  0.77158397  0.79313784     0.96700
C209        C  0.04425618  0.77603671  0.79013084     1.04100
O210        O  0.00110003  0.80610462  0.73264067    -1.13100
O211        O  0.04639020  0.85247271  0.70827064    -0.75500
O212        O  0.02841556  0.86757782  0.75601073    -0.79000
O213        O  0.95964310  0.75744748  0.76600402    -0.79700
C214        C  0.04877891  0.86926584  0.73347726     0.95600
O215        O  0.95994135  0.85228270  0.75877520    -0.77600
O216        O  0.03406760  0.79785453  0.67026221    -0.82800
C217        C  0.95221901  0.78230139  0.67710935     0.98200
C218        C  0.04529180  0.77043848  0.67691240     1.04100
O219        O  0.96363348  0.76027721  0.69533516    -0.78500
C220        C  0.95623784  0.86885633  0.73339282     1.02400
Fe221      Fe  0.83321912  0.22627250  0.00382674     1.65800
Fe222      Fe  0.83105383  0.30617740  0.00405296     1.73200
Fe223      Fe  0.76200802  0.26297706  0.00595976     1.54400
O224        O  0.75981487  0.23372356  0.96569241    -0.82200
O225        O  0.80010467  0.32656524  0.03690779    -0.80500
O226        O  0.79851019  0.20023835  0.97986721    -0.84700
O227        O  0.81409590  0.21288770  0.04699864    -0.79600
O228        O  0.75605465  0.30250326  0.97570261    -0.81300
O229        O  0.85841265  0.29334020  0.04355788    -0.84100
C230        C  0.78454804  0.20774136  0.05178218     0.96700
C231        C  0.77332828  0.20660963  0.96403126     1.04100
O232        O  0.80851893  0.26543199  0.00447244    -1.13100
O233        O  0.86449060  0.29020600  0.96999419    -0.75500
O234        O  0.85183701  0.23917535  0.96041170    -0.79000
O235        O  0.76263989  0.22257265  0.03628006    -0.79700
C236        C  0.86492970  0.26533235  0.95209072     0.95600
O237        O  0.87241920  0.24471358  0.02815300    -0.77600
O238        O  0.80452684  0.32263802  0.96579799    -0.82800
C239        C  0.77576197  0.31735384  0.05280983     0.98200
C240        C  0.77465457  0.32144880  0.96049179     1.04100
O241        O  0.76045825  0.29187918  0.04620473    -0.78500
C242        C  0.87502280  0.26832286  0.04715273     1.02400
Fe243      Fe  0.78283287  0.00821927  0.82598213     1.65800
Fe244      Fe  0.70327579  0.99513238  0.83285336     1.73200
Fe245      Fe  0.73826049  0.00082768  0.75881705     1.54400
O246        O  0.77587721  0.03414707  0.75214167    -0.82200
O247        O  0.68894437  0.95484652  0.80807548    -0.80500
O248        O  0.78838794  0.05022888  0.80160904    -0.84700
O249        O  0.80694307  0.98298424  0.79041084    -0.79600
O250        O  0.70511583  0.03728840  0.75949662    -0.81300
O251        O  0.72730704  0.96387097  0.86438430    -0.84100
C252        C  0.79834725  0.96400254  0.76808141     0.96700
C253        C  0.79104079  0.05263737  0.77130889     1.04100
O254        O  0.74119353  0.00124166  0.80602631    -1.13100
O255        O  0.71281730  0.03513959  0.86059631    -0.75500
O256        O  0.76582265  0.03446873  0.86429639    -0.79000
O257        O  0.77040973  0.96383355  0.75622175    -0.79700
C258        C  0.73879828  0.04541701  0.87235760     0.95600
O259        O  0.77936893  0.96689324  0.85199076    -0.77600
O260        O  0.67600528  0.02541514  0.80348604    -0.82800
C261        C  0.68691860  0.94968985  0.77801576     0.98200
C262        C  0.68071202  0.04125876  0.77748396     1.04100
O263        O  0.70150765  0.96702709  0.75745807    -0.78500
C264        C  0.75616533  0.95410029  0.86693482     1.02400
Fe265      Fe  0.50774902  0.27949101  0.31393050     1.65800
Fe266      Fe  0.49835193  0.19924130  0.32282755     1.73200
Fe267      Fe  0.50515399  0.23251547  0.24648884     1.54400
O268        O  0.47087040  0.26818279  0.23842929    -0.82200
O269        O  0.53328257  0.17458885  0.29863786    -0.80500
O270        O  0.47911449  0.30069800  0.28023008    -0.84700
O271        O  0.54755408  0.29046201  0.28808364    -0.79600
O272        O  0.46867683  0.19866024  0.24499929    -0.81300
O273        O  0.53417568  0.21261356  0.35482374    -0.84100
C274        C  0.55606878  0.28570106  0.25922639     0.96700
C275        C  0.46632852  0.29449830  0.25322324     1.04100
O276        O  0.50364790  0.23698281  0.29427040    -1.13100
O277        O  0.46225579  0.22027089  0.34969633    -0.75500
O278        O  0.46786142  0.27269951  0.34171047    -0.79000
O279        O  0.54185832  0.26618315  0.24049491    -0.79700
C280        C  0.45282249  0.24894162  0.35329043     0.95600
O281        O  0.53842925  0.26519206  0.34946927    -0.77600
O282        O  0.46275973  0.17963212  0.29482586    -0.82800
C283        C  0.54732425  0.17637395  0.27152112     0.98200
C284        C  0.45476281  0.18056533  0.26531983     1.04100
O285        O  0.53971772  0.19662545  0.24974354    -0.78500
C286        C  0.54755071  0.23899357  0.36153971     1.02400
Fe287      Fe  0.33212628  0.49944795  0.27470077     1.65800
Fe288      Fe  0.32736833  0.50134175  0.19428538     1.73200
Fe289      Fe  0.25911201  0.50476329  0.23999464     1.54400
O290        O  0.25834374  0.47062075  0.27757864    -0.82200
O291        O  0.30402928  0.54215340  0.18029755    -0.80500
O292        O  0.30947747  0.45820961  0.28857563    -0.84700
O293        O  0.30157849  0.52555320  0.30304994    -0.79600
O294        O  0.25208521  0.46811699  0.20701083    -0.81300
O295        O  0.36442789  0.53106939  0.21000334    -0.84100
C296        C  0.27663732  0.54231387  0.29951553     0.96700
C297        C  0.27954469  0.45368270  0.29200933     1.04100
O298        O  0.30579997  0.50175238  0.23615615    -1.13100
O299        O  0.35198463  0.45983740  0.20472496    -0.75500
O300        O  0.36820451  0.47241847  0.25394298    -0.79000
O301        O  0.26034951  0.54154699  0.27367130    -0.79700
C302        C  0.36974549  0.45504055  0.22892259     0.95600
O303        O  0.35387160  0.54132570  0.26174570    -0.77600
O304        O  0.29360432  0.47210302  0.17338145    -0.82800
C305        C  0.27588734  0.55275316  0.18437115     0.98200
C306        C  0.26722812  0.45966095  0.18182952     1.04100
O307        O  0.25582240  0.53965468  0.20356353    -0.78500
C308        C  0.36671353  0.54867341  0.23499359     1.02400
Fe309      Fe  0.28209331  0.32220496  0.50069880     1.65800
Fe310      Fe  0.20181345  0.32464498  0.50635834     1.73200
Fe311      Fe  0.24111936  0.25204161  0.50428457     1.54400
O312        O  0.27005644  0.24758897  0.46357645    -0.82200
O313        O  0.18212325  0.29489075  0.54074173    -0.80500
O314        O  0.30164436  0.28976428  0.47019256    -0.84700
O315        O  0.30042713  0.29823689  0.53965921    -0.79600
O316        O  0.20159501  0.24951996  0.47422473    -0.81300
O317        O  0.21867359  0.35256331  0.54465781    -0.84100
C318        C  0.30110259  0.26850799  0.54623283     0.96700
C319        C  0.29455817  0.26393508  0.45608768     1.04100
O320        O  0.24151672  0.29941541  0.50388073    -1.13100
O321        O  0.21601320  0.35766591  0.47103859    -0.75500
O322        O  0.26695433  0.34640098  0.46050907    -0.79000
O323        O  0.28137806  0.24861608  0.53403349    -0.79700
C324        C  0.24076706  0.35985205  0.45326127     0.95600
O325        O  0.26957894  0.35893521  0.53126274    -0.77600
O326        O  0.18091968  0.29857558  0.46938960    -0.82800
C327        C  0.18878292  0.26824326  0.55391252     0.98200
C328        C  0.18196449  0.26913349  0.46157998     1.04100
O329        O  0.21195889  0.25074114  0.54472490    -0.78500
C330        C  0.24590398  0.36532422  0.54917150     1.02400
Fe331      Fe  0.28460692  0.67976863  0.51600241     1.65800
Fe332      Fe  0.20433450  0.67337838  0.50630046     1.73200
Fe333      Fe  0.24042102  0.74741257  0.50235036     1.54400
O334        O  0.26984611  0.75743773  0.54171427    -0.82200
O335        O  0.18337843  0.69925059  0.47002451    -0.80500
O336        O  0.29986663  0.71376324  0.54783554    -0.84700
O337        O  0.30648783  0.70358051  0.47867025    -0.79600
O338        O  0.20102157  0.75021880  0.53336153    -0.81300
O339        O  0.22362550  0.64482502  0.47057305    -0.84100
C340        C  0.30385907  0.73102925  0.46570426     0.96700
C341        C  0.29237329  0.74209606  0.55529702     1.04100
O342        O  0.24317524  0.70042911  0.50807627    -1.13100
O343        O  0.21811303  0.64225523  0.54268163    -0.75500
O344        O  0.26800819  0.65505588  0.55544834    -0.79000
O345        O  0.28031049  0.74963226  0.47152977    -0.79700
C346        C  0.24209908  0.64056261  0.56127199     0.95600
O347        O  0.27509932  0.64283839  0.48429397    -0.77600
O348        O  0.18209293  0.70068219  0.54127512    -0.82800
C349        C  0.18833513  0.72483805  0.45448940     0.98200
C350        C  0.18218283  0.73053541  0.54744335     1.04100
O351        O  0.21048474  0.74435257  0.46204677    -0.78500
C352        C  0.25187245  0.63452782  0.46633940     1.02400
Fe353      Fe  0.32770367  0.50467000  0.73609441     1.65800
Fe354      Fe  0.32977705  0.49594722  0.81688303     1.73200
Fe355      Fe  0.25759043  0.49996725  0.77737810     1.54400
O356        O  0.25363412  0.54045893  0.74858783    -0.82200
O357        O  0.29923988  0.46236499  0.83688214    -0.80500
O358        O  0.29520195  0.53498880  0.71564775    -0.84700
O359        O  0.30463023  0.46636585  0.71592831    -0.79600
O360        O  0.25553225  0.53079901  0.81775840    -0.81300
O361        O  0.35616318  0.45783287  0.79930996    -0.84100
C362        C  0.27501773  0.45940402  0.71523682     0.96700
C363        C  0.26929074  0.54825146  0.72359962     1.04100
O364        O  0.30470248  0.49983851  0.77683358    -1.13100
O365        O  0.36410542  0.52984434  0.80297116    -0.75500
O366        O  0.35046647  0.54444783  0.75317037    -0.79000
O367        O  0.25497617  0.47029462  0.73594710    -0.79700
C368        C  0.36507799  0.54946219  0.77944033     0.95600
O369        O  0.36476209  0.47454797  0.74923236    -0.77600
O370        O  0.30523051  0.53326895  0.83750678    -0.82800
C371        C  0.27257862  0.44959179  0.82975387     0.98200
C372        C  0.27650737  0.54313745  0.83654197     1.04100
O373        O  0.25540999  0.45947558  0.80641917    -0.78500
C374        C  0.37006995  0.45517429  0.77225188     1.02400
Fe375      Fe  0.50059832  0.71966005  0.31372512     1.65800
Fe376      Fe  0.50712698  0.79877373  0.32099856     1.73200
Fe377      Fe  0.50257257  0.76355924  0.24670527     1.54400
O378        O  0.53953986  0.73020446  0.24175077    -0.82200
O379        O  0.47357948  0.82414333  0.29420589    -0.80500
O380        O  0.51856052  0.69478133  0.27504237    -0.84700
O381        O  0.45561648  0.71495513  0.29546955    -0.79600
O382        O  0.53684948  0.79959632  0.24424716    -0.81300
O383        O  0.46836487  0.78472217  0.34962294    -0.84100
C384        C  0.45033649  0.71316861  0.26532037     0.96700
C385        C  0.53791571  0.70184949  0.25272975     1.04100
O386        O  0.50371989  0.76128620  0.29356853    -1.13100
O387        O  0.54218888  0.77569248  0.34955590    -0.75500
O388        O  0.54556863  0.72539204  0.33093858    -0.79000
O389        O  0.46788576  0.72714984  0.24427600    -0.79700
C390        C  0.55701291  0.74891698  0.34659469     0.95600
O391        O  0.48230379  0.73467812  0.35716466    -0.77600
O392        O  0.54455638  0.81752283  0.29437547    -0.82800
C393        C  0.45874592  0.81945600  0.26770328     0.98200
C394        C  0.55164038  0.81712107  0.26452098     1.04100
O395        O  0.46599979  0.79694130  0.24826648    -0.78500
C396        C  0.46449136  0.75810540  0.36371171     1.02400
Fe397      Fe  0.67582207  0.49510985  0.27299970     1.65800
Fe398      Fe  0.68217840  0.49884715  0.19243267     1.73200
Fe399      Fe  0.74967419  0.49846056  0.23951377     1.54400
O400        O  0.74753143  0.52949321  0.27879064    -0.82200
O401        O  0.70900583  0.46090466  0.17681606    -0.80500
O402        O  0.69597492  0.53568711  0.29232483    -0.84700
O403        O  0.70733826  0.46813711  0.29899870    -0.79600
O404        O  0.75379209  0.53778283  0.20927020    -0.81300
O405        O  0.64693949  0.46556460  0.20475212    -0.84100
C406        C  0.73430139  0.45482869  0.29586873     0.96700
C407        C  0.72555555  0.54220640  0.29586386     1.04100
O408        O  0.70289353  0.49767942  0.23492970    -1.13100
O409        O  0.65436183  0.53778076  0.20482869    -0.75500
O410        O  0.63917851  0.52263437  0.25379490    -0.79000
O411        O  0.75156029  0.45938022  0.27103062    -0.79700
C412        C  0.63691130  0.54110067  0.22954916     0.95600
O413        O  0.65632175  0.45331105  0.25616495    -0.77600
O414        O  0.71425895  0.53127165  0.17382693    -0.82800
C415        C  0.73814256  0.45332908  0.18078504     0.98200
C416        C  0.73921324  0.54561869  0.18350992     1.04100
O417        O  0.75643210  0.46713683  0.20109419    -0.78500
C418        C  0.64473818  0.44657796  0.22868841     1.02400
Fe419      Fe  0.71870186  0.67864283  0.50757294     1.65800
Fe420      Fe  0.79769545  0.67349538  0.50353962     1.73200
Fe421      Fe  0.76161400  0.74664851  0.51093483     1.54400
O422        O  0.72383601  0.75122050  0.47752905    -0.82200
O423        O  0.81824282  0.69508470  0.54265320    -0.80500
O424        O  0.70737704  0.70132195  0.46543251    -0.84700
O425        O  0.69487313  0.71352182  0.53202673    -0.79600
O426        O  0.79353332  0.75062454  0.47300121    -0.81300
O427        O  0.77914006  0.63952870  0.53621484    -0.84100
C428        C  0.70180622  0.73741948  0.54920883     0.96700
C429        C  0.70721011  0.73150140  0.46068446     1.04100
O430        O  0.75975239  0.70008006  0.50742022    -1.13100
O431        O  0.78027602  0.65048681  0.46286598    -0.75500
O432        O  0.73308173  0.63853630  0.48269493    -0.79000
O433        O  0.72975959  0.74911391  0.54943576    -0.79700
C434        C  0.75410404  0.63543587  0.46109210     0.95600
O435        O  0.73069386  0.65741477  0.55019650    -0.77600
O436        O  0.82041620  0.70458864  0.47197038    -0.82800
C437        C  0.81744167  0.72287717  0.55499546     0.98200
C438        C  0.81564829  0.73295004  0.46186825     1.04100
O439        O  0.79898685  0.74502750  0.54464563    -0.78500
C440        C  0.75553360  0.64080653  0.55587381     1.02400
Fe441      Fe  0.66996932  0.50001696  0.73657855     1.65800
Fe442      Fe  0.67233334  0.50029275  0.81835022     1.73200
Fe443      Fe  0.74215660  0.50399908  0.77456189     1.54400
O444        O  0.74610108  0.46628015  0.74224125    -0.82200
O445        O  0.70126728  0.53450719  0.83844826    -0.80500
O446        O  0.70180379  0.47089229  0.71264064    -0.84700
O447        O  0.69149285  0.54039002  0.71895729    -0.79600
O448        O  0.74814605  0.47111859  0.81188957    -0.81300
O449        O  0.64292184  0.53775773  0.80600047    -0.84100
C450        C  0.72048803  0.54922443  0.71864573     0.96700
C451        C  0.72897230  0.45865438  0.71812220     1.04100
O452        O  0.69501294  0.50141973  0.77653656    -1.13100
O453        O  0.63980292  0.46561427  0.80397203    -0.75500
O454        O  0.64728402  0.45906394  0.75115242    -0.79000
O455        O  0.74198607  0.53664641  0.73637180    -0.79700
C456        C  0.63626734  0.44977954  0.77807625     0.95600
O457        O  0.63448987  0.52969834  0.75369347    -0.77600
O458        O  0.70053856  0.46365223  0.83503109    -0.82800
C459        C  0.72619447  0.54983427  0.83050327     0.98200
C460        C  0.72987657  0.45661199  0.83170348     1.04100
O461        O  0.74350210  0.54229309  0.80645914    -0.78500
C462        C  0.63026740  0.54558026  0.77940689     1.02400
Fe463      Fe  0.49310222  0.73105665  0.68392997     1.65800
Fe464      Fe  0.50289623  0.81050086  0.68971349     1.73200
Fe465      Fe  0.50263677  0.76450853  0.75848629     1.54400
O466        O  0.46346743  0.73430118  0.76247171    -0.82200
O467        O  0.53799432  0.82718576  0.72018077    -0.80500
O468        O  0.46436274  0.70735403  0.71623581    -0.84700
O469        O  0.53278730  0.70969082  0.70297809    -0.79600
O470        O  0.47134604  0.80299346  0.76581195    -0.81300
O471        O  0.53933636  0.79569995  0.66040788    -0.84100
C472        C  0.54296212  0.70722111  0.73182094     0.96700
C473        C  0.45398088  0.71164363  0.74454274     1.04100
O474        O  0.49964557  0.76866855  0.71108556    -1.13100
O475        O  0.46759902  0.80040024  0.65523136    -0.75500
O476        O  0.45239112  0.75018366  0.66458596    -0.79000
O477        O  0.53306100  0.72485861  0.75496678    -0.79700
C478        C  0.44780982  0.77744538  0.65205998     0.95600
O479        O  0.52121126  0.74781745  0.64621767    -0.77600
O480        O  0.46762740  0.82818597  0.71825025    -0.82800
C481        C  0.55213590  0.81802891  0.74562575     0.98200
C482        C  0.45881208  0.82399039  0.74724490     1.04100
O483        O  0.54279391  0.79386903  0.76173659    -0.78500
C484        C  0.54081639  0.77083538  0.64318321     1.02400
Fe485      Fe  0.51307718  0.27033398  0.69133218     1.65800
Fe486      Fe  0.49885822  0.19099893  0.69106289     1.73200
Fe487      Fe  0.50521001  0.23245982  0.76241207     1.54400
O488        O  0.53912346  0.26944999  0.76545783    -0.82200
O489        O  0.45894306  0.17950706  0.71761736    -0.80500
O490        O  0.55489414  0.27750653  0.71503193    -0.84700
O491        O  0.48751838  0.29773639  0.72397495    -0.79600
O492        O  0.54133681  0.19890006  0.76403879    -0.81300
O493        O  0.46759292  0.21224815  0.65717779    -0.84100
C494        C  0.46959742  0.29324846  0.74837894     0.96700
C495        C  0.55777503  0.28232665  0.74492206     1.04100
O496        O  0.50531054  0.23100506  0.71489156    -1.13100
O497        O  0.53897280  0.19730998  0.66218940    -0.75500
O498        O  0.54026779  0.24998396  0.65567030    -0.79000
O499        O  0.46908990  0.26666003  0.76349102    -0.79700
C500        C  0.55126499  0.22234717  0.65018063     0.95600
O501        O  0.47215169  0.26479679  0.66574718    -0.77600
O502        O  0.52914903  0.16634626  0.72271418    -0.82800
C503        C  0.45465180  0.17924794  0.74790150     0.98200
C504        C  0.54548782  0.17327487  0.74789948     1.04100
O505        O  0.47148640  0.19593882  0.76718128    -0.78500
C506        C  0.45857112  0.24112278  0.65240522     1.02400
Fe507      Fe  0.72447472  0.32566463  0.51333220     1.65800
Fe508      Fe  0.80419519  0.32412337  0.50650118     1.73200
Fe509      Fe  0.76165354  0.25389686  0.50488940     1.54400
O510        O  0.73140650  0.24832689  0.54441882    -0.82200
O511        O  0.82475086  0.29361197  0.47320017    -0.80500
O512        O  0.70163647  0.29233580  0.54157895    -0.84700
O513        O  0.70551069  0.30623590  0.47233688    -0.79600
O514        O  0.80088393  0.24861159  0.53612671    -0.81300
O515        O  0.78880656  0.35084420  0.46736614    -0.84100
C516        C  0.70432042  0.27750771  0.46243573     0.96700
C517        C  0.70751851  0.26493224  0.55314902     1.04100
O518        O  0.76348783  0.30079586  0.50832041    -1.13100
O519        O  0.79043440  0.35900751  0.54039092    -0.75500
O520        O  0.74112462  0.34562049  0.55512157    -0.79000
O521        O  0.72195700  0.25517222  0.47377420    -0.79700
C522        C  0.76703623  0.36050584  0.56003845     0.95600
O523        O  0.74066777  0.36356921  0.48550481    -0.77600
O524        O  0.82179807  0.29743950  0.54426550    -0.82800
C525        C  0.81645797  0.26881241  0.45763590     0.98200
C526        C  0.82010057  0.26766334  0.55065038     1.04100
O527        O  0.79136017  0.25306997  0.46464612    -0.78500
C528        C  0.76277275  0.36611013  0.46463343     1.02400
C529        C  0.68543500  0.25338254  0.57825867    -0.05800
C530        C  0.68239494  0.27172863  0.60641837    -0.05700
C531        C  0.65667963  0.26704331  0.62725685    -0.23900
C532        C  0.63317276  0.24427906  0.61993863     0.18400
C533        C  0.63654443  0.22447950  0.59246977     0.15600
C534        C  0.66296802  0.22904446  0.57173043    -0.18900
C535        C  0.61254950  0.20176502  0.58556315    -0.20700
C536        C  0.58499044  0.19972291  0.60494938    -0.13300
C537        C  0.58102212  0.22065863  0.63112953     0.03400
C538        C  0.60559498  0.24221699  0.63890191    -0.25400
H539        H  0.69919307  0.29087816  0.61143663     0.08500
H540        H  0.65439219  0.28227863  0.64830293     0.12100
H541        H  0.66484193  0.21536996  0.54957567     0.12000
H542        H  0.61469730  0.18624045  0.56473741     0.11800
H543        H  0.56631304  0.18281509  0.59876402     0.12300
H544        H  0.60280501  0.25809590  0.65943585     0.14300
C545        C  0.58136079  0.30653062  0.75474490    -0.05800
C546        C  0.60818242  0.31186601  0.73499373    -0.05700
C547        C  0.62528979  0.34038740  0.73712893    -0.23900
C548        C  0.61558917  0.36415868  0.75879227     0.18400
C549        C  0.59002320  0.35821963  0.78034797     0.15600
C550        C  0.57330606  0.32910781  0.77851200    -0.18900
C551        C  0.58055711  0.38222828  0.80203832    -0.20700
C552        C  0.59568976  0.41213652  0.80168256    -0.13300
C553        C  0.62010587  0.41850034  0.77930028     0.03400
C554        C  0.63029088  0.39419497  0.75834259    -0.25400
H555        H  0.61464968  0.29478040  0.71643718     0.08500
H556        H  0.64505223  0.34450807  0.72068130     0.12100
H557        H  0.55232203  0.32535430  0.79344460     0.12000
H558        H  0.56110305  0.37808115  0.81882659     0.11800
H559        H  0.58787278  0.43049765  0.81834704     0.12300
H560        H  0.64968480  0.39872084  0.74152374     0.14300
C561        C  0.61208982  0.57573901  0.77715862    -0.05800
C562        C  0.59663426  0.58924728  0.80401105    -0.05700
C563        C  0.58142582  0.61904972  0.80134982    -0.23900
C564        C  0.58212761  0.63598800  0.77200533     0.18400
C565        C  0.59859216  0.62284249  0.74533322     0.15600
C566        C  0.61309847  0.59286676  0.74800329    -0.18900
C567        C  0.60003511  0.63963785  0.71613181    -0.20700
C568        C  0.58368784  0.66842501  0.71266363    -0.13300
C569        C  0.56573071  0.68104558  0.73835673     0.03400
C570        C  0.56592925  0.66528228  0.76843350    -0.25400
H571        H  0.59620120  0.57670442  0.82691739     0.08500
H572        H  0.56913509  0.62880842  0.82215144     0.12100
H573        H  0.62585091  0.58314683  0.72742742     0.12000
H574        H  0.61296034  0.63001731  0.69565027     0.11800
H575        H  0.58404152  0.68023287  0.68934230     0.12300
H576        H  0.55196960  0.67470456  0.78831510     0.14300
C577        C  0.76913483  0.38042926  0.58950017    -0.05800
C578        C  0.78513373  0.41001080  0.58944669    -0.05700
C579        C  0.78286054  0.43055973  0.61613344    -0.23900
C580        C  0.76480405  0.42164639  0.64334071     0.18400
C581        C  0.75015089  0.39112436  0.64417622     0.15600
C582        C  0.75248770  0.37079418  0.61736880    -0.18900
C583        C  0.73197619  0.38202415  0.67113649    -0.20700
C584        C  0.72680350  0.40363173  0.69629322    -0.13300
C585        C  0.74021506  0.43436311  0.69518955     0.03400
C586        C  0.75980032  0.44313910  0.66903142    -0.25400
H587        H  0.79809770  0.41785623  0.56822237     0.08500
H588        H  0.79436733  0.45379490  0.61508536     0.12100
H589        H  0.74039254  0.34780763  0.61774609     0.12000
H590        H  0.72065109  0.35869525  0.67213775     0.11800
H591        H  0.71123758  0.39683027  0.71607115     0.12300
H592        H  0.76957957  0.46717277  0.66788182     0.14300
C593        C  0.75658216  0.62249717  0.58643246    -0.05800
C594        C  0.77698273  0.59606165  0.59028642    -0.05700
C595        C  0.77635938  0.57807069  0.61882966    -0.23900
C596        C  0.75536212  0.58631888  0.64393161     0.18400
C597        C  0.73560816  0.61359044  0.64065886     0.15600
C598        C  0.73655141  0.63156606  0.61213360    -0.18900
C599        C  0.71408380  0.62159569  0.66532290    -0.20700
C600        C  0.71056997  0.60150181  0.69202102    -0.13300
C601        C  0.72930934  0.57380923  0.69495900     0.03400
C602        C  0.75250659  0.56688077  0.67147355    -0.25400
H603        H  0.79280064  0.58880501  0.57092357     0.08500
H604        H  0.79165750  0.55724682  0.62092877     0.12100
H605        H  0.72110326  0.65227451  0.60969267     0.12000
H606        H  0.69885926  0.64247905  0.66319374     0.11800
H607        H  0.69235531  0.60688214  0.70982729     0.12300
H608        H  0.76646178  0.54508256  0.67340791     0.14300
C609        C  0.67545073  0.75136993  0.56836315    -0.05800
C610        C  0.68078850  0.77080965  0.59547404    -0.05700
C611        C  0.65489315  0.78107518  0.61437765    -0.23900
C612        C  0.62347314  0.77185654  0.60642504     0.18400
C613        C  0.61803723  0.75328586  0.57848558     0.15600
C614        C  0.64384472  0.74365078  0.55957450    -0.18900
C615        C  0.58700008  0.74334811  0.57052748    -0.20700
C616        C  0.56160994  0.75019986  0.59109744    -0.13300
C617        C  0.56674036  0.76779142  0.61944706     0.03400
C618        C  0.59754381  0.77955826  0.62651835    -0.25400
H619        H  0.70489448  0.77722918  0.60254412     0.08500
H620        H  0.65950083  0.79539131  0.63569372     0.12100
H621        H  0.63924043  0.72917945  0.53832712     0.12000
H622        H  0.58256504  0.72919553  0.54905319     0.11800
H623        H  0.53801508  0.74114326  0.58523625     0.12300
H624        H  0.60162933  0.79292950  0.64857983     0.14300
C625        C  0.75676573  0.38686832  0.43614165    -0.05800
C626        C  0.72975011  0.40688031  0.43638632    -0.05700
C627        C  0.72049644  0.42344316  0.40883268    -0.23900
C628        C  0.73810321  0.42056468  0.38030392     0.18400
C629        C  0.76589379  0.40143781  0.37948057     0.15600
C630        C  0.77519290  0.38458973  0.40758475    -0.18900
C631        C  0.78337135  0.39938065  0.35044613    -0.20700
C632        C  0.77333371  0.41625823  0.32274598    -0.13300
C633        C  0.74542793  0.43503413  0.32358927     0.03400
C634        C  0.72805082  0.43676437  0.35264015    -0.25400
H635        H  0.71510522  0.40922215  0.45782851     0.08500
H636        H  0.69923204  0.43823786  0.40975488     0.12100
H637        H  0.79593832  0.36906738  0.40691910     0.12000
H638        H  0.80482208  0.38490952  0.34922085     0.11800
H639        H  0.78735356  0.41468638  0.30081982     0.12300
H640        H  0.70667948  0.45137001  0.35413684     0.14300
C641        C  0.74684010  0.61427970  0.43337976    -0.05800
C642        C  0.71898130  0.59533725  0.43417593    -0.05700
C643        C  0.70918404  0.57822088  0.40710376    -0.23900
C644        C  0.72706528  0.57958394  0.37862228     0.18400
C645        C  0.75574245  0.59754087  0.37764818     0.15600
C646        C  0.76551627  0.61482642  0.40510343    -0.18900
C647        C  0.77388648  0.59803814  0.34912324    -0.20700
C648        C  0.76377082  0.58072602  0.32200681    -0.13300
C649        C  0.73500406  0.56330584  0.32277910     0.03400
C650        C  0.71672185  0.56302915  0.35118063    -0.25400
H651        H  0.70419070  0.59427299  0.45562277     0.08500
H652        H  0.68736020  0.56424716  0.40833126     0.12100
H653        H  0.78700229  0.62933550  0.40413808     0.12000
H654        H  0.79601991  0.61149036  0.34790487     0.11800
H655        H  0.77848012  0.58081444  0.30047773     0.12300
H656        H  0.69495052  0.54892693  0.35232995     0.14300
C657        C  0.58861906  0.74410000  0.36195888    -0.05800
C658        C  0.60553368  0.71554780  0.35589621    -0.05700
C659        C  0.63423084  0.70913503  0.37157996    -0.23900
C660        C  0.64662573  0.73105614  0.39375378     0.18400
C661        C  0.63088361  0.76056769  0.39896897     0.15600
C662        C  0.60200495  0.76705346  0.38281156    -0.18900
C663        C  0.64361750  0.78234770  0.42134222    -0.20700
C664        C  0.67032435  0.77397109  0.43993443    -0.13300
C665        C  0.68469123  0.74378141  0.43623433     0.03400
C666        C  0.67353822  0.72307015  0.41207359    -0.25400
H667        H  0.59629525  0.69767212  0.33940752     0.08500
H668        H  0.64620651  0.68654597  0.36709984     0.12100
H669        H  0.58948390  0.78931907  0.38735385     0.12000
H670        H  0.63206908  0.80519174  0.42553469     0.11800
H671        H  0.67845100  0.79025388  0.45855560     0.12300
H672        H  0.68465316  0.69981143  0.40886232     0.14300
C673        C  0.55820110  0.67538994  0.24028758    -0.05800
C674        C  0.58602817  0.68076029  0.22203195    -0.05700
C675        C  0.60625907  0.65506933  0.21397230    -0.23900
C676        C  0.59906091  0.62372982  0.22428933     0.18400
C677        C  0.57070910  0.61825242  0.24197123     0.15600
C678        C  0.55048313  0.64380417  0.24935740    -0.18900
C679        C  0.56341625  0.58744666  0.25314266    -0.20700
C680        C  0.58462353  0.56230525  0.24798390    -0.13300
C681        C  0.61320860  0.56727030  0.23096020     0.03400
C682        C  0.62003385  0.59794034  0.21838204    -0.25400
H683        H  0.59259606  0.70481575  0.21483690     0.08500
H684        H  0.62792224  0.65982397  0.20043231     0.12100
H685        H  0.52899346  0.63903510  0.26323281     0.12000
H686        H  0.54171978  0.58297375  0.26676190     0.11800
H687        H  0.57892023  0.53893515  0.25780102     0.12300
H688        H  0.64228384  0.60203022  0.20557729     0.14300
C689        C  0.39264713  0.42837161  0.76623270    -0.05800
C690        C  0.41124918  0.42871891  0.73793172    -0.05700
C691        C  0.43006973  0.40255730  0.72952679    -0.23900
C692        C  0.43071632  0.37529602  0.74917167     0.18400
C693        C  0.41295059  0.37461412  0.77815504     0.15600
C694        C  0.39410081  0.40133518  0.78670499    -0.18900
C695        C  0.41391710  0.34693014  0.79753514    -0.20700
C696        C  0.43200042  0.32018362  0.78800678    -0.13300
C697        C  0.44948909  0.32070544  0.75899221     0.03400
C698        C  0.44868631  0.34860354  0.73987803    -0.25400
H699        H  0.41083603  0.44912103  0.72175004     0.08500
H700        H  0.44370908  0.40345033  0.70730593     0.12100
H701        H  0.37983148  0.40062142  0.80852573     0.12000
H702        H  0.40057441  0.34589457  0.81992090     0.11800
H703        H  0.43240883  0.29919714  0.80339029     0.12300
H704        H  0.46199012  0.34964342  0.71744495     0.14300
C705        C  0.38353276  0.57947460  0.78208927    -0.05800
C706        C  0.41342208  0.58036305  0.79748617    -0.05700
C707        C  0.43225274  0.60810831  0.79609559    -0.23900
C708        C  0.42124607  0.63537995  0.77956336     0.18400
C709        C  0.39036321  0.63515007  0.76560608     0.15600
C710        C  0.37174931  0.60728264  0.76706207    -0.18900
C711        C  0.37930536  0.66217525  0.74882996    -0.20700
C712        C  0.39948460  0.68840778  0.74398924    -0.13300
C713        C  0.43060755  0.68831835  0.75657876     0.03400
C714        C  0.44114309  0.66218501  0.77514582    -0.25400
H715        H  0.42279181  0.55919435  0.80928454     0.08500
H716        H  0.45581534  0.60789404  0.80702180     0.12100
H717        H  0.34842503  0.60685903  0.75554249     0.12000
H718        H  0.35565698  0.66236593  0.73807253     0.11800
H719        H  0.39136585  0.70816834  0.72911965     0.12300
H720        H  0.46551225  0.66182656  0.78416002     0.14300
C721        C  0.23974260  0.62144872  0.59111461    -0.05800
C722        C  0.22213387  0.59282201  0.59176332    -0.05700
C723        C  0.22129874  0.57406237  0.61974965    -0.23900
C724        C  0.23765690  0.58396276  0.64762006     0.18400
C725        C  0.25421106  0.61351781  0.64757067     0.15600
C726        C  0.25529378  0.63194254  0.61927687    -0.18900
C727        C  0.27062908  0.62344948  0.67537551    -0.20700
C728        C  0.27261875  0.60320145  0.70216293    -0.13300
C729        C  0.25769944  0.57314370  0.70171934     0.03400
C730        C  0.23934927  0.56402271  0.67487080    -0.25400
H731        H  0.20983143  0.58450212  0.57031436     0.08500
H732        H  0.20845176  0.55152142  0.61938750     0.12100
H733        H  0.26850100  0.65430799  0.61903525     0.12000
H734        H  0.28336366  0.64605406  0.67575096     0.11800
H735        H  0.28762928  0.61003865  0.72237283     0.12300
H736        H  0.22869200  0.54034108  0.67418648     0.14300
C737        C  0.33066509  0.74174690  0.44444951    -0.05800
C738        C  0.32909437  0.77007690  0.42607341    -0.05700
C739        C  0.35545884  0.78021667  0.40756409    -0.23900
C740        C  0.38403913  0.76243437  0.40737293     0.18400
C741        C  0.38591220  0.73431800  0.42627682     0.15600
C742        C  0.35942132  0.72415679  0.44433089    -0.18900
C743        C  0.41421708  0.71648505  0.42676206    -0.20700
C744        C  0.44012724  0.72560437  0.40774055    -0.13300
C745        C  0.43850622  0.75280212  0.38768781     0.03400
C746        C  0.41050130  0.77168039  0.38820005    -0.25400
H747        H  0.30751035  0.78438709  0.42599731     0.08500
H748        H  0.35347725  0.80195131  0.39339842     0.12100
H749        H  0.36149049  0.70254697  0.45871600     0.12000
H750        H  0.41611294  0.69501418  0.44136744     0.11800
H751        H  0.46129082  0.71064856  0.40805207     0.12300
H752        H  0.40877172  0.79256124  0.37273350     0.14300
C753        C  0.41844406  0.78186843  0.63288089    -0.05800
C754        C  0.41942224  0.79655404  0.60241283    -0.05700
C755        C  0.39260765  0.79560755  0.58212104    -0.23900
C756        C  0.36444352  0.78018281  0.59222994     0.18400
C757        C  0.36272116  0.76725829  0.62376886     0.15600
C758        C  0.38969651  0.76825131  0.64385527    -0.18900
C759        C  0.33482536  0.75150635  0.63389045    -0.20700
C760        C  0.30990670  0.74615333  0.61207450    -0.13300
C761        C  0.31217516  0.75722237  0.58019150     0.03400
C762        C  0.33890252  0.77533328  0.57067385    -0.25400
H763        H  0.44143301  0.80713524  0.59362098     0.08500
H764        H  0.39433448  0.80570709  0.55807617     0.12100
H765        H  0.38882776  0.75711714  0.66752208     0.12000
H766        H  0.33313095  0.74154666  0.65800676     0.11800
H767        H  0.28979043  0.73148325  0.61942917     0.12300
H768        H  0.34106557  0.78302525  0.54574380     0.14300
C769        C  0.26383128  0.43961956  0.68752561    -0.05800
C770        C  0.23645890  0.42013678  0.68923862    -0.05700
C771        C  0.22643108  0.40233347  0.66220629    -0.23900
C772        C  0.24321576  0.40422569  0.63278665     0.18400
C773        C  0.27030092  0.42438936  0.63078875     0.15600
C774        C  0.28047417  0.44159839  0.65801275    -0.18900
C775        C  0.28705430  0.42693066  0.60163667    -0.20700
C776        C  0.27787449  0.40880976  0.57492973    -0.13300
C777        C  0.25162955  0.38772834  0.57655513     0.03400
C778        C  0.23389123  0.38603176  0.60552907    -0.25400
H779        H  0.22306442  0.41839849  0.71154736     0.08500
H780        H  0.20555098  0.38709696  0.66431375     0.12100
H781        H  0.30125874  0.45704652  0.65602458     0.12000
H782        H  0.30771004  0.44252022  0.59964087     0.11800
H783        H  0.29190436  0.41078243  0.55302623     0.12300
H784        H  0.21379382  0.36971047  0.60727314     0.14300
C785        C  0.32726929  0.25689777  0.56748150    -0.05800
C786        C  0.33122922  0.22422675  0.57497853    -0.05700
C787        C  0.35799649  0.21378732  0.59266611    -0.23900
C788        C  0.38140049  0.23579612  0.60281914     0.18400
C789        C  0.37742929  0.26852524  0.59503684     0.15600
C790        C  0.35054685  0.27876936  0.57793215    -0.18900
C791        C  0.40050750  0.29083301  0.60420957    -0.20700
C792        C  0.42707084  0.28116702  0.62169772    -0.13300
C793        C  0.43127818  0.24891634  0.63080637     0.03400
C794        C  0.40849777  0.22603978  0.62076462    -0.25400
H795        H  0.31390877  0.20672029  0.56682265     0.08500
H796        H  0.36051900  0.18853443  0.59813766     0.12100
H797        H  0.34823765  0.30399786  0.57213687     0.12000
H798        H  0.39791561  0.31594791  0.59807439     0.11800
H799        H  0.44421359  0.29939764  0.62854320     0.12300
H800        H  0.41139738  0.20112162  0.62750595     0.14300
C801        C  0.38389410  0.57931114  0.23288035    -0.05800
C802        C  0.41063926  0.58310891  0.21277380    -0.05700
C803        C  0.42705381  0.61229420  0.21198773    -0.23900
C804        C  0.41666655  0.63803172  0.23107006     0.18400
C805        C  0.38890436  0.63467584  0.25026755     0.15600
C806        C  0.37273588  0.60540680  0.25097605    -0.18900
C807        C  0.37867630  0.66009518  0.26976072    -0.20700
C808        C  0.39738732  0.68759202  0.27243961    -0.13300
C809        C  0.42591891  0.69035411  0.25487667     0.03400
C810        C  0.43464724  0.66628257  0.23295874    -0.25400
H811        H  0.41929772  0.56328171  0.19838951     0.08500
H812        H  0.44828677  0.61447566  0.19714564     0.12100
H813        H  0.35165553  0.60275932  0.26601520     0.12000
H814        H  0.35731621  0.65791310  0.28441573     0.11800
H815        H  0.39063137  0.70589642  0.28966354     0.12300
H816        H  0.45708661  0.66812549  0.21993713     0.14300
C817        C  0.26648132  0.56208469  0.32743225    -0.05800
C818        C  0.23578070  0.57568866  0.32932609    -0.05700
C819        C  0.22596146  0.59163305  0.35746429    -0.23900
C820        C  0.24667218  0.59415334  0.38412733     0.18400
C821        C  0.27757446  0.58066403  0.38218007     0.15600
C822        C  0.28726101  0.56508949  0.35399903    -0.18900
C823        C  0.29848594  0.58283002  0.40847218    -0.20700
C824        C  0.28929682  0.59899283  0.43631503    -0.13300
C825        C  0.25898088  0.61340089  0.43852372     0.03400
C826        C  0.23742887  0.61033729  0.41245481    -0.25400
H827        H  0.21917753  0.57343365  0.30937193     0.08500
H828        H  0.20213137  0.60178871  0.35845085     0.12100
H829        H  0.31107713  0.55484517  0.35302905     0.12000
H830        H  0.32221199  0.57242250  0.40733396     0.11800
H831        H  0.30638225  0.60088367  0.45589736     0.12300
H832        H  0.21405827  0.62151779  0.41368912     0.14300
C833        C  0.26971643  0.42890526  0.31544418    -0.05800
C834        C  0.28830804  0.40109804  0.31861014    -0.05700
C835        C  0.28421004  0.38070977  0.34497183    -0.23900
C836        C  0.26192650  0.38817908  0.36906483     0.18400
C837        C  0.24189079  0.41520232  0.36545724     0.15600
C838        C  0.24559723  0.43523615  0.33830143    -0.18900
C839        C  0.21976541  0.42251729  0.38992669    -0.20700
C840        C  0.21852926  0.40405658  0.41824852    -0.13300
C841        C  0.23955530  0.37817513  0.42259966     0.03400
C842        C  0.26051216  0.36987688  0.39739865    -0.25400
H843        H  0.30699346  0.39585284  0.30128539     0.08500
H844        H  0.29955473  0.35991951  0.34729140     0.12100
H845        H  0.23149040  0.45692577  0.33626116     0.12000
H846        H  0.20407260  0.44302596  0.38756720     0.11800
H847        H  0.20193647  0.41066466  0.43717471     0.12300
H848        H  0.27638374  0.34951094  0.40016545     0.14300
C849        C  0.57609455  0.23972792  0.38264209    -0.05800
C850        C  0.58144379  0.21645981  0.40654660    -0.05700
C851        C  0.60894941  0.21783542  0.42592996    -0.23900
C852        C  0.63169044  0.24223404  0.42133242     0.18400
C853        C  0.62672027  0.26522651  0.39675302     0.15600
C854        C  0.59908671  0.26383948  0.37774320    -0.18900
C855        C  0.64909787  0.28975268  0.39197514    -0.20700
C856        C  0.67544128  0.29248813  0.41241386    -0.13300
C857        C  0.68024767  0.27038797  0.43751499     0.03400
C858        C  0.65876223  0.24474124  0.44141911    -0.25400
H859        H  0.56416503  0.19752864  0.41052086     0.08500
H860        H  0.61231179  0.20000208  0.44464331     0.12100
H861        H  0.59555736  0.28156492  0.35889999     0.12000
H862        H  0.64566488  0.30744588  0.37311720     0.11800
H863        H  0.69165642  0.31251183  0.40926376     0.12300
H864        H  0.66206506  0.22801738  0.46118633     0.14300
C865        C  0.42254185  0.25546940  0.37054280    -0.05800
C866        C  0.41287339  0.28744577  0.37475754    -0.05700
C867        C  0.38374031  0.29462468  0.38901624    -0.23900
C868        C  0.36380276  0.27004434  0.39988717     0.18400
C869        C  0.37287859  0.23770980  0.39608869     0.15600
C870        C  0.40224060  0.23054094  0.38110702    -0.18900
C871        C  0.35271695  0.21344807  0.40814006    -0.20700
C872        C  0.32512662  0.22140529  0.42579730    -0.13300
C873        C  0.31719377  0.25368255  0.43083719     0.03400
C874        C  0.33568415  0.27762226  0.41608401    -0.25400
H875        H  0.42776171  0.30715451  0.36680613     0.08500
H876        H  0.37705187  0.31953380  0.39205562     0.12100
H877        H  0.40926897  0.20577119  0.37782543     0.12000
H878        H  0.35911084  0.18845981  0.40531384     0.11800
H879        H  0.31124494  0.20258002  0.43708014     0.12300
H880        H  0.32945248  0.30265009  0.41939444     0.14300
C881        C  0.58244702  0.30585729  0.24760871    -0.05800
C882        C  0.60973272  0.30880405  0.26715311    -0.05700
C883        C  0.62940343  0.33564507  0.26469678    -0.23900
C884        C  0.62156546  0.36031347  0.24316702     0.18400
C885        C  0.59565407  0.35647417  0.22153347     0.15600
C886        C  0.57649426  0.32881861  0.22349217    -0.18900
C887        C  0.58790521  0.38148152  0.20019326    -0.20700
C888        C  0.60441096  0.41067133  0.20170246    -0.13300
C889        C  0.62869566  0.41528064  0.22470642     0.03400
C890        C  0.63790721  0.38954164  0.24450403    -0.25400
H891        H  0.61434210  0.29151884  0.28614550     0.08500
H892        H  0.64934935  0.33814297  0.28123136     0.12100
H893        H  0.55504579  0.32695378  0.20887413     0.12000
H894        H  0.56833334  0.37890732  0.18323439     0.11800
H895        H  0.59737897  0.43001355  0.18576385     0.12300
H896        H  0.65722529  0.39258498  0.26172810     0.14300
C897        C  0.44665052  0.32041462  0.23912912    -0.05800
C898        C  0.41802138  0.31476704  0.22229988    -0.05700
C899        C  0.39796103  0.34054158  0.21394547    -0.23900
C900        C  0.40631470  0.37212506  0.22247391     0.18400
C901        C  0.43589161  0.37775506  0.23800447     0.15600
C902        C  0.45585001  0.35210037  0.24569164    -0.18900
C903        C  0.44450727  0.40880157  0.24728008    -0.20700
C904        C  0.42321277  0.43400386  0.24298527    -0.13300
C905        C  0.39328338  0.42881989  0.22861536     0.03400
C906        C  0.38524328  0.39799873  0.21730502    -0.25400
H907        H  0.41053427  0.29051387  0.21696640     0.08500
H908        H  0.37544050  0.33568451  0.20193305     0.12100
H909        H  0.47818883  0.35674185  0.25820939     0.12000
H910        H  0.46719334  0.41337701  0.25909422     0.11800
H911        H  0.42983498  0.45758571  0.25162620     0.12300
H912        H  0.36200192  0.39386258  0.20643055     0.14300
C913        C  0.66578864  0.92337837  0.76645803    -0.05800
C914        C  0.65707196  0.92182548  0.73369428    -0.05700
C915        C  0.63449236  0.89956631  0.72300662    -0.23900
C916        C  0.62017270  0.87827303  0.74483626     0.18400
C917        C  0.62970541  0.87837795  0.77755534     0.15600
C918        C  0.65249525  0.90092294  0.78820048    -0.18900
C919        C  0.61548489  0.85659951  0.79914723    -0.20700
C920        C  0.59104836  0.83599354  0.78867652    -0.13300
C921        C  0.58032650  0.83692164  0.75648960     0.03400
C922        C  0.59572655  0.85762134  0.73456239    -0.25400
H923        H  0.66690292  0.93860754  0.71637118     0.08500
H924        H  0.62761029  0.89958320  0.69777922     0.12100
H925        H  0.65918924  0.90152539  0.81348202     0.12000
H926        H  0.62268526  0.85606440  0.82427672     0.11800
H927        H  0.57979379  0.82014928  0.80601236     0.12300
H928        H  0.58816640  0.85824941  0.70952270     0.14300
C929        C  0.57050240  0.15053424  0.75878364    -0.05800
C930        C  0.58026994  0.14972483  0.79130148    -0.05700
C931        C  0.60355869  0.12794620  0.80167905    -0.23900
C932        C  0.61797855  0.10699116  0.77960042     0.18400
C933        C  0.60900606  0.10830372  0.74667134     0.15600
C934        C  0.58508449  0.12969936  0.73658767    -0.18900
C935        C  0.62420601  0.08826707  0.72430781    -0.20700
C936        C  0.64792879  0.06696972  0.73444451    -0.13300
C937        C  0.65637241  0.06476721  0.76720107     0.03400
C938        C  0.64125283  0.08482351  0.78977057    -0.25400
H939        H  0.56950167  0.16562098  0.80884763     0.08500
H940        H  0.61032619  0.12754068  0.82695050     0.12100
H941        H  0.57816443  0.13047330  0.71134981     0.12000
H942        H  0.61778781  0.08909757  0.69895489     0.11800
H943        H  0.65925589  0.05164364  0.71673367     0.12300
H944        H  0.64796243  0.08348707  0.81504608     0.14300
C945        C  0.76470479  0.33772172  0.07961675    -0.05800
C946        C  0.73291793  0.33602231  0.09045779    -0.05700
C947        C  0.72170477  0.35757419  0.11357913    -0.23900
C948        C  0.74220562  0.38094572  0.12635472     0.18400
C949        C  0.77461257  0.38184219  0.11671905     0.15600
C950        C  0.78562518  0.36026831  0.09341357    -0.18900
C951        C  0.79526273  0.40484840  0.12992682    -0.20700
C952        C  0.78363991  0.42750480  0.15172811    -0.13300
C953        C  0.75117180  0.42763854  0.16034838     0.03400
C954        C  0.73067278  0.40392698  0.14798761    -0.25400
H955        H  0.71642577  0.31875770  0.08025507     0.08500
H956        H  0.69686078  0.35640516  0.12094924     0.12100
H957        H  0.81034915  0.36143793  0.08558364     0.12000
H958        H  0.82021964  0.40571066  0.12291803     0.11800
H959        H  0.79979003  0.44560278  0.16098432     0.12300
H960        H  0.70564318  0.40364149  0.15487169     0.14300
C961        C  0.74315950  0.43061992  0.85213221    -0.05800
C962        C  0.77593056  0.42305805  0.85124097    -0.05700
C963        C  0.78849941  0.39942542  0.87155673    -0.23900
C964        C  0.76852556  0.38289354  0.89309866     0.18400
C965        C  0.73546258  0.38979488  0.89369546     0.15600
C966        C  0.72303291  0.41351078  0.87327536    -0.18900
C967        C  0.71539589  0.37316885  0.91503530    -0.20700
C968        C  0.72803958  0.35029740  0.93608835    -0.13300
C969        C  0.76100854  0.34374677  0.93631624     0.03400
C970        C  0.78109283  0.35995878  0.91440739    -0.25400
H971        H  0.79197313  0.43568875  0.83512595     0.08500
H972        H  0.81390324  0.39432566  0.87066288     0.12100
H973        H  0.69766515  0.41883721  0.87416919     0.12000
H974        H  0.68996428  0.37815562  0.91575127     0.11800
H975        H  0.71207971  0.33831177  0.95278180     0.12300
H976        H  0.80655979  0.35502794  0.91417577     0.14300
C977        C  0.75933473  0.18061326  0.94454326    -0.05800
C978        C  0.74466443  0.18641433  0.91461052    -0.05700
C979        C  0.73454449  0.16072022  0.89534880    -0.23900
C980        C  0.73883145  0.12900681  0.90593820     0.18400
C981        C  0.75225092  0.12324565  0.93676087     0.15600
C982        C  0.76221003  0.14900916  0.95579729    -0.18900
C983        C  0.75703134  0.09175698  0.94745451    -0.20700
C984        C  0.75060266  0.06611318  0.92693060    -0.13300
C985        C  0.73845073  0.07156777  0.89587721     0.03400
C986        C  0.73156874  0.10294273  0.88575206    -0.25400
H987        H  0.74216343  0.21065112  0.90564656     0.08500
H988        H  0.72425156  0.16560383  0.87182171     0.12100
H989        H  0.77305988  0.14441884  0.97916990     0.12000
H990        H  0.76718065  0.08702848  0.97108250     0.11800
H991        H  0.75629714  0.04202137  0.93477722     0.12300
H992        H  0.72274119  0.10710138  0.86146315     0.14300
C993        C  0.92342594  0.77613211  0.65715129    -0.05800
C994        C  0.90642120  0.80209564  0.64373792    -0.05700
C995        C  0.88071309  0.79699052  0.62284684    -0.23900
C996        C  0.87160244  0.76580010  0.61466402     0.18400
C997        C  0.88777766  0.73952815  0.62885782     0.15600
C998        C  0.91334187  0.74482866  0.65025934    -0.18900
C999        C  0.87884144  0.70833947  0.62055397    -0.20700
C1000       C  0.85517840  0.70319809  0.59738142    -0.13300
C1001       C  0.83973065  0.72911600  0.58212649     0.03400
C1002       C  0.84742814  0.76045546  0.59165413    -0.25400
H1003       H  0.91326765  0.82655129  0.64906539     0.08500
H1004       H  0.86850124  0.81744427  0.61247553     0.12100
H1005       H  0.92611617  0.72464167  0.66048811     0.12000
H1006       H  0.89075230  0.68790582  0.63130818     0.11800
H1007       H  0.84943965  0.67873011  0.59091998     0.12300
H1008       H  0.83570168  0.78063524  0.58019373     0.14300
C1009       C  0.07102728  0.75761185  0.65578275    -0.05800
C1010       C  0.07718747  0.72457133  0.65405661    -0.05700
C1011       C  0.10049971  0.71264934  0.63292602    -0.23900
C1012       C  0.11835956  0.73356807  0.61337251     0.18400
C1013       C  0.11299337  0.76687527  0.61559952     0.15600
C1014       C  0.08934394  0.77862264  0.63657501    -0.18900
C1015       C  0.13115302  0.78789848  0.59656169    -0.20700
C1016       C  0.15397214  0.77607763  0.57497122    -0.13300
C1017       C  0.15902522  0.74293559  0.57174850     0.03400
C1018       C  0.14122968  0.72180133  0.59141963    -0.25400
H1019       H  0.06350383  0.70788068  0.66855443     0.08500
H1020       H  0.10437834  0.68701989  0.63169375     0.12100
H1021       H  0.08519401  0.80422228  0.63791774     0.12000
H1022       H  0.12749491  0.81354728  0.59813371     0.11800
H1023       H  0.16727580  0.79295232  0.56033721     0.12300
H1024       H  0.14499686  0.69618340  0.58954517     0.14300
C1025       C  0.82202996  0.94130371  0.75625330    -0.05800
C1026       C  0.81802093  0.90860969  0.76250272    -0.05700
C1027       C  0.84321019  0.88741086  0.75717094    -0.23900
C1028       C  0.87247450  0.89878856  0.74523088     0.18400
C1029       C  0.87591780  0.93146786  0.73690444     0.15600
C1030       C  0.85064393  0.95264813  0.74278262    -0.18900
C1031       C  0.90504526  0.94255905  0.72424576    -0.20700
C1032       C  0.93106819  0.92173338  0.72143440    -0.13300
C1033       C  0.92827013  0.88987572  0.73176075     0.03400
C1034       C  0.89875436  0.87830907  0.74281848    -0.25400
H1035       H  0.79604874  0.89981657  0.77320434     0.08500
H1036       H  0.84019887  0.86239440  0.76342625     0.12100
H1037       H  0.85354997  0.97803988  0.73808160     0.12000
H1038       H  0.90794336  0.96744334  0.71742830     0.11800
H1039       H  0.95375141  0.93083440  0.71270103     0.12300
H1040       H  0.89654079  0.85351217  0.75031602     0.14300
C1041       C  0.34269655  0.07328157  0.77199484    -0.05800
C1042       C  0.33572002  0.09117395  0.74404940    -0.05700
C1043       C  0.35540305  0.11657860  0.73459182    -0.23900
C1044       C  0.38238681  0.12472133  0.75295936     0.18400
C1045       C  0.38923202  0.10750680  0.78154245     0.15600
C1046       C  0.36948504  0.08186226  0.79078022    -0.18900
C1047       C  0.41598344  0.11597038  0.80016856    -0.20700
C1048       C  0.43625317  0.14068970  0.79010061    -0.13300
C1049       C  0.43035565  0.15707624  0.76105011     0.03400
C1050       C  0.40306299  0.14926385  0.74281284    -0.25400
H1051       H  0.31516375  0.08535370  0.72923787     0.08500
H1052       H  0.34967144  0.12967290  0.71273221     0.12100
H1053       H  0.37510764  0.06854639  0.81254190     0.12000
H1054       H  0.42158361  0.10306564  0.82217469     0.11800
H1055       H  0.45739917  0.14600231  0.80427038     0.12300
H1056       H  0.39834802  0.16181397  0.72036599     0.14300
C1057       C  0.34612589  0.92939158  0.76826755    -0.05800
C1058       C  0.35872227  0.93204394  0.73698507    -0.05700
C1059       C  0.38305570  0.91158373  0.72686905    -0.23900
C1060       C  0.39495570  0.88802074  0.74780760     0.18400
C1061       C  0.38171468  0.88429951  0.77891486     0.15600
C1062       C  0.35731983  0.90502467  0.78895599    -0.18900
C1063       C  0.39362715  0.86040631  0.79959555    -0.20700
C1064       C  0.41885825  0.84069501  0.78964833    -0.13300
C1065       C  0.43250044  0.84466366  0.75889790     0.03400
C1066       C  0.42015904  0.86838096  0.73813323    -0.25400
H1067       H  0.35064610  0.95075481  0.72078879     0.08500
H1068       H  0.39299300  0.91458962  0.70288014     0.12100
H1069       H  0.34755011  0.90266239  0.81310254     0.12000
H1070       H  0.38357443  0.85711050  0.82348876     0.11800
H1071       H  0.42763673  0.82239764  0.80594657     0.12300
H1072       H  0.43018669  0.87177353  0.71422811     0.14300
C1073       C  0.18457934  0.93950648  0.75921614    -0.05800
C1074       C  0.19042862  0.91057756  0.74307225    -0.05700
C1075       C  0.16473532  0.89162087  0.73253749    -0.23900
C1076       C  0.13303670  0.90152298  0.73800784     0.18400
C1077       C  0.12728256  0.93117602  0.75334247     0.15600
C1078       C  0.15295863  0.94995318  0.76346385    -0.18900
C1079       C  0.09592506  0.94116657  0.75953933    -0.20700
C1080       C  0.07033354  0.92125675  0.75194592    -0.13300
C1081       C  0.07566291  0.89148136  0.73732142     0.03400
C1082       C  0.10698834  0.88195667  0.72956938    -0.25400
H1083       H  0.21469562  0.90217220  0.73963616     0.08500
H1084       H  0.16961210  0.86894198  0.72088214     0.12100
H1085       H  0.14827645  0.97252804  0.77549930     0.12000
H1086       H  0.09125860  0.96388692  0.77122820     0.11800
H1087       H  0.04629227  0.92886201  0.75800802     0.12300
H1088       H  0.11110930  0.85873740  0.71867125     0.14300
C1089       C  0.78447195  0.65414176  0.93088161    -0.05800
C1090       C  0.80904100  0.63377168  0.92002440    -0.05700
C1091       C  0.80314897  0.61072074  0.89640375    -0.23900
C1092       C  0.77241710  0.60721038  0.88349127     0.18400
C1093       C  0.74759244  0.62786067  0.89387631     0.15600
C1094       C  0.75389710  0.65155653  0.91710491    -0.18900
C1095       C  0.71660169  0.62366655  0.88173672    -0.20700
C1096       C  0.71004703  0.59860163  0.86047669    -0.13300
C1097       C  0.73448015  0.57783786  0.85031814     0.03400
C1098       C  0.76582725  0.58267685  0.86126710    -0.25400
H1099       H  0.83291739  0.63545818  0.93007855     0.08500
H1100       H  0.82244756  0.59513570  0.88882848     0.12100
H1101       H  0.73475230  0.66695379  0.92546121     0.12000
H1102       H  0.69726969  0.63916464  0.88938780     0.11800
H1103       H  0.68570226  0.59517849  0.85213164     0.12300
H1104       H  0.78462351  0.56640982  0.85379370     0.14300
C1105       C  0.75161454  0.57219103  0.16339908    -0.05800
C1106       C  0.78298609  0.58362729  0.16741744    -0.05700
C1107       C  0.79524825  0.60706355  0.14667669    -0.23900
C1108       C  0.77627980  0.61957364  0.12170387     0.18400
C1109       C  0.74435414  0.60903217  0.11817589     0.15600
C1110       C  0.73227577  0.58547268  0.13896791    -0.18900
C1111       C  0.72520559  0.62178249  0.09351566    -0.20700
C1112       C  0.73780762  0.64423059  0.07197995    -0.13300
C1113       C  0.76985060  0.65416192  0.07458022     0.03400
C1114       C  0.78884811  0.64198742  0.09984693    -0.25400
H1115       H  0.79832875  0.57387624  0.18606928     0.08500
H1116       H  0.81972735  0.61503725  0.14985506     0.12100
H1117       H  0.70787554  0.57718930  0.13580390     0.12000
H1118       H  0.70061830  0.61403361  0.09057452     0.11800
H1119       H  0.72268902  0.65317497  0.05273398     0.12300
H1120       H  0.81351383  0.64967505  0.10230856     0.14300
C1121       C  0.90382335  0.73832672  0.93680345    -0.05800
C1122       C  0.92733964  0.76228516  0.93812715    -0.05700
C1123       C  0.94300947  0.77230440  0.91029788    -0.23900
C1124       C  0.93530499  0.75875250  0.88039001     0.18400
C1125       C  0.91275343  0.73367356  0.87848031     0.15600
C1126       C  0.89720734  0.72328235  0.90694913    -0.18900
C1127       C  0.90560754  0.72041166  0.84799868    -0.20700
C1128       C  0.92030065  0.73238930  0.81981380    -0.13300
C1129       C  0.94206950  0.75800806  0.82170072     0.03400
C1130       C  0.94957169  0.77060066  0.85234775    -0.25400
H1131       H  0.93282061  0.77422140  0.96070478     0.08500
H1132       H  0.96045154  0.79141339  0.91203803     0.12100
H1133       H  0.87878417  0.70507662  0.90557584     0.12000
H1134       H  0.88852517  0.70102323  0.84594113     0.11800
H1135       H  0.91447370  0.72184475  0.79665411     0.12300
H1136       H  0.96682536  0.78984538  0.85463062     0.14300
C1137       C  0.76391672  0.92677262  0.88802495    -0.05800
C1138       C  0.79130582  0.92850773  0.90759652    -0.05700
C1139       C  0.80173890  0.90183346  0.92483534    -0.23900
C1140       C  0.78526196  0.87274569  0.92237549     0.18400
C1141       C  0.75736025  0.87069006  0.90313632     0.15600
C1142       C  0.74664818  0.89792293  0.88620828    -0.18900
C1143       C  0.74099336  0.84135910  0.90104086    -0.20700
C1144       C  0.75185226  0.81455797  0.91828907    -0.13300
C1145       C  0.77964168  0.81653333  0.93728345     0.03400
C1146       C  0.79628502  0.84572348  0.93896009    -0.25400
H1147       H  0.80492362  0.95053336  0.90915343     0.08500
H1148       H  0.82304924  0.90381930  0.93967036     0.12100
H1149       H  0.72576642  0.89637652  0.87070484     0.12000
H1150       H  0.71959777  0.83924805  0.88637175     0.11800
H1151       H  0.73850454  0.79237680  0.91693988     0.12300
H1152       H  0.81737840  0.84775387  0.95414110     0.14300
C1153       C  0.07688467  0.78035048  0.35963042    -0.05800
C1154       C  0.09306496  0.80583449  0.37491398    -0.05700
C1155       C  0.11980596  0.80034475  0.39433622    -0.23900
C1156       C  0.13097653  0.76916988  0.39926866     0.18400
C1157       C  0.11547382  0.74332236  0.38359151     0.15600
C1158       C  0.08873892  0.74906796  0.36358452    -0.18900
C1159       C  0.12638833  0.71207218  0.38904638    -0.20700
C1160       C  0.15124983  0.70640120  0.41093175    -0.13300
C1161       C  0.16618399  0.73185150  0.42739512     0.03400
C1162       C  0.15655616  0.76334924  0.42063786    -0.25400
H1163       H  0.08498200  0.83030046  0.37196978     0.08500
H1164       H  0.13136593  0.82047921  0.40600640     0.12100
H1165       H  0.07671051  0.72920444  0.35191641     0.12000
H1166       H  0.11500341  0.69192340  0.37724538     0.11800
H1167       H  0.15829592  0.68187359  0.41566676     0.12300
H1168       H  0.16758346  0.78310332  0.43346311     0.14300
C1169       C  0.92774449  0.76485722  0.35670876    -0.05800
C1170       C  0.92542995  0.73158093  0.36112438    -0.05700
C1171       C  0.90231267  0.71862141  0.38174760    -0.23900
C1172       C  0.88077328  0.73869464  0.39796645     0.18400
C1173       C  0.88192009  0.77209338  0.39255958     0.15600
C1174       C  0.90552179  0.78498955  0.37215079    -0.18900
C1175       C  0.85987314  0.79205056  0.40820957    -0.20700
C1176       C  0.83770020  0.77919133  0.42995341    -0.13300
C1177       C  0.83724972  0.74614038  0.43664168     0.03400
C1178       C  0.85858069  0.72596691  0.41999467    -0.25400
H1179       H  0.94221756  0.71561548  0.34942824     0.08500
H1180       H  0.90161870  0.69294210  0.38540611     0.12100
H1181       H  0.90678314  0.81067127  0.36848819     0.12000
H1182       H  0.86015222  0.81767535  0.40408907     0.11800
H1183       H  0.82147152  0.79530705  0.44221731     0.12300
H1184       H  0.85829612  0.70040500  0.42452666     0.14300
C1185       C  0.88924223  0.73799763  0.09325546    -0.05800
C1186       C  0.91412653  0.71688247  0.10147067    -0.05700
C1187       C  0.93035868  0.72017212  0.13099246    -0.23900
C1188       C  0.92179426  0.74448064  0.15281917     0.18400
C1189       C  0.89593661  0.76491130  0.14517406     0.15600
C1190       C  0.87986459  0.76144422  0.11571392    -0.18900
C1191       C  0.88725928  0.78939504  0.16651847    -0.20700
C1192       C  0.90518856  0.79488648  0.19435880    -0.13300
C1193       C  0.93179128  0.77567782  0.20173405     0.03400
C1194       C  0.93939694  0.74974630  0.18138489    -0.25400
H1195       H  0.92159547  0.69844845  0.08473074     0.08500
H1196       H  0.95005918  0.70419154  0.13641751     0.12100
H1197       H  0.86030304  0.77754838  0.11001954     0.12000
H1198       H  0.86739623  0.80516104  0.16101373     0.11800
H1199       H  0.89901140  0.81504826  0.20957355     0.12300
H1200       H  0.96024983  0.73518260  0.18655112     0.14300
C1201       C  0.92963332  0.24339805  0.35157202    -0.05800
C1202       C  0.93051463  0.27546560  0.36185015    -0.05700
C1203       C  0.90785035  0.28709219  0.38373427    -0.23900
C1204       C  0.88355724  0.26700938  0.39545036     0.18400
C1205       C  0.88157806  0.23510704  0.38428922     0.15600
C1206       C  0.90477144  0.22341938  0.36264751    -0.18900
C1207       C  0.85678122  0.21531204  0.39547945    -0.20700
C1208       C  0.83490668  0.22658007  0.41843639    -0.13300
C1209       C  0.83752517  0.25780540  0.43086368     0.03400
C1210       C  0.86165640  0.27808557  0.41864575    -0.25400
H1211       H  0.94937101  0.29132363  0.35370754     0.08500
H1212       H  0.90961568  0.31170379  0.39186316     0.12100
H1213       H  0.90359367  0.19874845  0.35456442     0.12000
H1214       H  0.85464514  0.19088111  0.38691975     0.11800
H1215       H  0.81652998  0.21049479  0.42719856     0.12300
H1216       H  0.86378580  0.30239928  0.42758712     0.14300
C1217       C  0.07337849  0.24233700  0.35112999    -0.05800
C1218       C  0.08014806  0.27531009  0.35256640    -0.05700
C1219       C  0.10303035  0.28713186  0.37411276    -0.23900
C1220       C  0.11988566  0.26617840  0.39436942     0.18400
C1221       C  0.11405389  0.23287488  0.39235511     0.15600
C1222       C  0.09071437  0.22119657  0.37094968    -0.18900
C1223       C  0.13140330  0.21185273  0.41207726    -0.20700
C1224       C  0.15381087  0.22369789  0.43408710    -0.13300
C1225       C  0.15915506  0.25684855  0.43705540     0.03400
C1226       C  0.14221010  0.27796162  0.41681424    -0.25400
H1227       H  0.06712837  0.29210353  0.33758001     0.08500
H1228       H  0.10730810  0.31272446  0.37514943     0.12100
H1229       H  0.08598897  0.19567604  0.36977637     0.12000
H1230       H  0.12743943  0.18622941  0.41070241     0.11800
H1231       H  0.16653511  0.20685256  0.44927378     0.12300
H1232       H  0.14632989  0.30355330  0.41854174     0.14300
C1233       C  0.89757898  0.26562808  0.07445724    -0.05800
C1234       C  0.92534268  0.24715368  0.07072867    -0.05700
C1235       C  0.94444996  0.23981205  0.09725747    -0.23900
C1236       C  0.93574058  0.25023416  0.12815104     0.18400
C1237       C  0.90847767  0.26973655  0.13233358     0.15600
C1238       C  0.88970583  0.27777584  0.10522293    -0.18900
C1239       C  0.89995903  0.27963449  0.16368585    -0.20700
C1240       C  0.91770640  0.26933493  0.19062183    -0.13300
C1241       C  0.94407921  0.24895400  0.18646528     0.03400
C1242       C  0.95333164  0.24031677  0.15500920    -0.25400
H1243       H  0.93181044  0.23764245  0.04729181     0.08500
H1244       H  0.96541599  0.22495575  0.09376980     0.12100
H1245       H  0.86806384  0.29172534  0.10832944     0.12000
H1246       H  0.87918174  0.29466808  0.16741892     0.11800
H1247       H  0.91030237  0.27647165  0.21461625     0.12300
H1248       H  0.97407272  0.22514084  0.15136766     0.14300
C1249       C  0.93035186  0.24269934  0.65962535    -0.05800
C1250       C  0.91964335  0.27456658  0.66142516    -0.05700
C1251       C  0.89485727  0.28536870  0.64147646    -0.23900
C1252       C  0.88020390  0.26451211  0.61940907     0.18400
C1253       C  0.89001472  0.23219591  0.61804542     0.15600
C1254       C  0.91498977  0.22154072  0.63806246    -0.18900
C1255       C  0.87505008  0.21123854  0.59625946    -0.20700
C1256       C  0.85133189  0.22243197  0.57522213    -0.13300
C1257       C  0.84231773  0.25484324  0.57544010     0.03400
C1258       C  0.85646742  0.27559903  0.59815173    -0.25400
H1259       H  0.93078315  0.29133179  0.67789329     0.08500
H1260       H  0.88744964  0.31019849  0.64300008     0.12100
H1261       H  0.92262091  0.19676613  0.63659504     0.12000
H1262       H  0.88215155  0.18630152  0.59502553     0.11800
H1263       H  0.84087444  0.20598386  0.55798910     0.12300
H1264       H  0.84946912  0.30060057  0.59885745     0.14300
C1265       C  0.07764150  0.24548928  0.66175926    -0.05800
C1266       C  0.08179477  0.27849466  0.65672010    -0.05700
C1267       C  0.10533687  0.28964641  0.63549915    -0.23900
C1268       C  0.12533926  0.26796828  0.61932203     0.18400
C1269       C  0.12213969  0.23480186  0.62521288     0.15600
C1270       C  0.09825237  0.22379962  0.64622437    -0.18900
C1271       C  0.14245442  0.21313934  0.60947643    -0.20700
C1272       C  0.16513632  0.22414093  0.58729563    -0.13300
C1273       C  0.16768538  0.25696359  0.58026903     0.03400
C1274       C  0.14799087  0.27881243  0.59683509    -0.25400
H1275       H  0.06616266  0.29561283  0.66838115     0.08500
H1276       H  0.10757196  0.31517864  0.63136102     0.12100
H1277       H  0.09548370  0.19827848  0.65024191     0.12000
H1278       H  0.14039284  0.18762928  0.61386114     0.11800
H1279       H  0.17988227  0.20684640  0.57476480     0.12300
H1280       H  0.14987957  0.30423251  0.59180473     0.14300
C1281       C  0.81489047  0.07591257  0.75925015    -0.05800
C1282       C  0.81971119  0.10428081  0.77680730    -0.05700
C1283       C  0.84754937  0.12221123  0.77282364    -0.23900
C1284       C  0.87131554  0.11194579  0.75141932     0.18400
C1285       C  0.86604084  0.08467349  0.73191884     0.15600
C1286       C  0.83755166  0.06688671  0.73573789    -0.18900
C1287       C  0.89012457  0.07493212  0.71029285    -0.20700
C1288       C  0.91942103  0.09144849  0.70886251    -0.13300
C1289       C  0.92520778  0.11745512  0.72953421     0.03400
C1290       C  0.90075744  0.12787344  0.75020559    -0.25400
H1291       H  0.80269772  0.11154744  0.79510863     0.08500
H1292       H  0.85117084  0.14328595  0.78768527     0.12100
H1293       H  0.83431437  0.04472484  0.72248999     0.12000
H1294       H  0.88653578  0.05421605  0.69495518     0.11800
H1295       H  0.93783659  0.08337305  0.69240428     0.12300
H1296       H  0.90481804  0.14846313  0.76563877     0.14300
C1297       C  0.08340052  0.11824790  0.73476194    -0.05800
C1298       C  0.09329002  0.09665064  0.71079271    -0.05700
C1299       C  0.12205379  0.07962998  0.71439920    -0.23900
C1300       C  0.14152025  0.08444937  0.74172506     0.18400
C1301       C  0.13227357  0.10734628  0.76501936     0.15600
C1302       C  0.10341162  0.12384398  0.76143265    -0.18900
C1303       C  0.15147023  0.11271816  0.79219145    -0.20700
C1304       C  0.17859656  0.09410790  0.79747978    -0.13300
C1305       C  0.18728485  0.07001236  0.77553719     0.03400
C1306       C  0.16928300  0.06602933  0.74699143    -0.25400
H1307       H  0.07840864  0.09233287  0.68982882     0.08500
H1308       H  0.12879766  0.06233845  0.69612548     0.12100
H1309       H  0.09632049  0.14101135  0.77971958     0.12000
H1310       H  0.14482975  0.13051165  0.81003144     0.11800
H1311       H  0.19217311  0.09772671  0.81947167     0.12300
H1312       H  0.17563892  0.04730539  0.73003495     0.14300
C1313       C  0.92983413  0.23442171  0.81375442    -0.05800
C1314       C  0.90731365  0.21067338  0.82146525    -0.05700
C1315       C  0.88811915  0.21364830  0.84866936    -0.23900
C1316       C  0.89166338  0.24019223  0.86892783     0.18400
C1317       C  0.91260300  0.26537039  0.86025905     0.15600
C1318       C  0.93121874  0.26262300  0.83214707    -0.18900
C1319       C  0.91610128  0.29169468  0.88103881    -0.20700
C1320       C  0.90032286  0.29217061  0.91088009    -0.13300
C1321       C  0.88079625  0.26636733  0.92023226     0.03400
C1322       C  0.87584501  0.24098352  0.89855515    -0.25400
H1323       H  0.90598389  0.18879903  0.80747962     0.08500
H1324       H  0.87194412  0.19431967  0.85488952     0.12100
H1325       H  0.94883313  0.28081736  0.82641344     0.12000
H1326       H  0.93181060  0.31135565  0.87470571     0.11800
H1327       H  0.90398121  0.31232629  0.92690160     0.12300
H1328       H  0.86027283  0.22122574  0.90504256     0.14300
C1329       C  0.26654520  0.58107003  0.16495138    -0.05800
C1330       C  0.29031086  0.60227555  0.15377809    -0.05700
C1331       C  0.28290766  0.62645676  0.13169125    -0.23900
C1332       C  0.25165994  0.62964920  0.11993499     0.18400
C1333       C  0.22728864  0.60939731  0.13206372     0.15600
C1334       C  0.23478019  0.58552676  0.15485316    -0.18900
C1335       C  0.19609111  0.61248969  0.12017528    -0.20700
C1336       C  0.18931073  0.63454423  0.09573262    -0.13300
C1337       C  0.21355419  0.65412459  0.08264418     0.03400
C1338       C  0.24463616  0.65195851  0.09547052    -0.25400
H1339       H  0.31491780  0.59963026  0.16156100     0.08500
H1340       H  0.30186144  0.64194395  0.12298365     0.12100
H1341       H  0.21629157  0.56930985  0.16325211     0.12000
H1342       H  0.17705158  0.59730815  0.12922243     0.11800
H1343       H  0.16505183  0.63574894  0.08662310     0.12300
H1344       H  0.26353162  0.66704033  0.08592986     0.14300
C1345       C  0.26809489  0.57047890  0.85818379    -0.05800
C1346       C  0.29277017  0.58983991  0.87079159    -0.05700
C1347       C  0.28617791  0.61497907  0.89202697    -0.23900
C1348       C  0.25470884  0.62130721  0.90160373     0.18400
C1349       C  0.22952473  0.60248220  0.88883159     0.15600
C1350       C  0.23628112  0.57741833  0.86693053    -0.18900
C1351       C  0.19809253  0.60863607  0.89878135    -0.20700
C1352       C  0.19181734  0.63239587  0.92175421    -0.13300
C1353       C  0.21671796  0.65093781  0.93516877     0.03400
C1354       C  0.24816418  0.64561372  0.92433779    -0.25400
H1355       H  0.31747989  0.58553588  0.86423795     0.08500
H1356       H  0.30581965  0.62915450  0.90136594     0.12100
H1357       H  0.21697200  0.56284787  0.85748034     0.12000
H1358       H  0.17838763  0.59466518  0.88926960     0.11800
H1359       H  0.16727027  0.63606687  0.92925703     0.12300
H1360       H  0.26763410  0.65956939  0.93437443     0.14300
C1361       C  0.06220293  0.76464186  0.81861386    -0.05800
C1362       C  0.07702975  0.73450665  0.81974768    -0.05700
C1363       C  0.09124136  0.72369994  0.84850463    -0.23900
C1364       C  0.08997601  0.74252450  0.87664955     0.18400
C1365       C  0.07438965  0.77248885  0.87562317     0.15600
C1366       C  0.06107445  0.78340148  0.84673782    -0.18900
C1367       C  0.07218070  0.79122016  0.90352361    -0.20700
C1368       C  0.08632353  0.78096572  0.93213275    -0.13300
C1369       C  0.10295629  0.75176638  0.93347949     0.03400
C1370       C  0.10419597  0.73226222  0.90569644    -0.25400
H1371       H  0.07757868  0.71941737  0.79850979     0.08500
H1372       H  0.10291384  0.70053891  0.84882697     0.12100
H1373       H  0.04876214  0.80626224  0.84649371     0.12000
H1374       H  0.05994944  0.81408327  0.90309251     0.11800
H1375       H  0.08488044  0.79640454  0.95310248     0.12300
H1376       H  0.11706571  0.70974451  0.90635442     0.14300
C1377       C  0.10762852  0.74554158  0.08780297    -0.05800
C1378       C  0.07583006  0.73474374  0.08820771    -0.05700
C1379       C  0.05720452  0.73815944  0.11603824    -0.23900
C1380       C  0.07036536  0.75184240  0.14401115     0.18400
C1381       C  0.10286448  0.76125318  0.14429372     0.15600
C1382       C  0.12117688  0.75828808  0.11609840    -0.18900
C1383       C  0.11619127  0.77441257  0.17246980    -0.20700
C1384       C  0.09707471  0.77961329  0.19966788    -0.13300
C1385       C  0.06451869  0.77170519  0.19893102     0.03400
C1386       C  0.05134441  0.75735477  0.17131805    -0.25400
H1387       H  0.06509339  0.72467981  0.06666331     0.08500
H1388       H  0.03239748  0.73062074  0.11552428     0.12100
H1389       H  0.14591426  0.76613492  0.11604540     0.12000
H1390       H  0.14109238  0.78160747  0.17311011     0.11800
H1391       H  0.10728105  0.79123635  0.22067607     0.12300
H1392       H  0.02602266  0.75165687  0.17073853     0.14300
C1393       C  0.26399354  0.91585581  0.88858142    -0.05800
C1394       C  0.28178316  0.91198939  0.91705714    -0.05700
C1395       C  0.27912568  0.88385105  0.93538786    -0.23900
C1396       C  0.25875763  0.85900027  0.92517752     0.18400
C1397       C  0.24181052  0.86221618  0.89584792     0.15600
C1398       C  0.24454923  0.89050031  0.87773184    -0.18900
C1399       C  0.22108918  0.83774800  0.88569155    -0.20700
C1400       C  0.21558317  0.81130266  0.90559495    -0.13300
C1401       C  0.23130654  0.80838506  0.93533797     0.03400
C1402       C  0.25376150  0.83177441  0.94466291    -0.25400
H1403       H  0.29700716  0.93123277  0.92581436     0.08500
H1404       H  0.29220176  0.88184431  0.95769861     0.12100
H1405       H  0.23110260  0.89304767  0.85564028     0.12000
H1406       H  0.20806125  0.83984034  0.86333835     0.11800
H1407       H  0.19776873  0.79372746  0.89839325     0.12300
H1408       H  0.26519093  0.83006073  0.96795754     0.14300
C1409       C  0.26101521  0.42263057  0.85014974    -0.05800
C1410       C  0.22848166  0.41401361  0.85035031    -0.05700
C1411       C  0.21711247  0.39072331  0.87182062    -0.23900
C1412       C  0.23807779  0.37543388  0.89337019     0.18400
C1413       C  0.27102684  0.38288212  0.89246309     0.15600
C1414       C  0.28224898  0.40641025  0.87096016    -0.18900
C1415       C  0.29207947  0.36722344  0.91364309    -0.20700
C1416       C  0.28048373  0.34522804  0.93632384    -0.13300
C1417       C  0.24756872  0.33860674  0.93842718     0.03400
C1418       C  0.22657222  0.35342920  0.91632111    -0.25400
H1419       H  0.21161145  0.42600337  0.83460428     0.08500
H1420       H  0.19177966  0.38513122  0.87200587     0.12100
H1421       H  0.30748181  0.41248156  0.87085517     0.12000
H1422       H  0.31747934  0.37245918  0.91310592     0.11800
H1423       H  0.29719930  0.33414185  0.95289204     0.12300
H1424       H  0.20115274  0.34827990  0.91730904     0.14300
C1425       C  0.25442801  0.43381369  0.16142370    -0.05800
C1426       C  0.22252150  0.43414452  0.15096349    -0.05700
C1427       C  0.21154074  0.41095744  0.12920211    -0.23900
C1428       C  0.23220564  0.38681438  0.11812670     0.18400
C1429       C  0.26398276  0.38561042  0.12970556     0.15600
C1430       C  0.27496048  0.40930911  0.15098302    -0.18900
C1431       C  0.28441752  0.36107416  0.11933908    -0.20700
C1432       C  0.27387021  0.33849902  0.09679247    -0.13300
C1433       C  0.24277712  0.34021441  0.08395401     0.03400
C1434       C  0.22187339  0.36423060  0.09525097    -0.25400
H1435       H  0.20646768  0.45295600  0.15875286     0.08500
H1436       H  0.18703655  0.41214543  0.12070866     0.12100
H1437       H  0.29957452  0.40886141  0.15932784     0.12000
H1438       H  0.30875724  0.35963616  0.12828458     0.11800
H1439       H  0.29038679  0.32023786  0.08870728     0.12300
H1440       H  0.19766169  0.36565232  0.08593284     0.14300
C1441       C  0.11584141  0.25415969  0.07892927    -0.05800
C1442       C  0.09591085  0.22703621  0.07750959    -0.05700
C1443       C  0.08018448  0.21592846  0.10485671    -0.23900
C1444       C  0.08372749  0.23183200  0.13429193     0.18400
C1445       C  0.10261841  0.25985202  0.13619867     0.15600
C1446       C  0.11877431  0.27087171  0.10839885    -0.18900
C1447       C  0.10491300  0.27606005  0.16589761    -0.20700
C1448       C  0.08816194  0.26482676  0.19306975    -0.13300
C1449       C  0.06984828  0.23664981  0.19114041     0.03400
C1450       C  0.06813442  0.22019296  0.16170713    -0.25400
H1451       H  0.09307260  0.21368605  0.05527273     0.08500
H1452       H  0.06544725  0.19464318  0.10301627     0.12100
H1453       H  0.13419231  0.29169569  0.10991849     0.12000
H1454       H  0.11912032  0.29767234  0.16793774     0.11800
H1455       H  0.08935193  0.27815785  0.21546418     0.12300
H1456       H  0.05331561  0.19894609  0.15970167     0.14300
C1457       C  0.07409784  0.23527072  0.81789440    -0.05800
C1458       C  0.09951922  0.21368294  0.82200018    -0.05700
C1459       C  0.12010500  0.21615122  0.84840680    -0.23900
C1460       C  0.11529088  0.23997287  0.87167671     0.18400
C1461       C  0.09087293  0.26297064  0.86707408     0.15600
C1462       C  0.07056309  0.26074384  0.83986425    -0.18900
C1463       C  0.08623012  0.28666437  0.89066767    -0.20700
C1464       C  0.10460899  0.28668330  0.91904823    -0.13300
C1465       C  0.12793565  0.26298117  0.92445683     0.03400
C1466       C  0.13363159  0.24019521  0.90011950    -0.25400
H1467       H  0.10259368  0.19391647  0.80537262     0.08500
H1468       H  0.13885326  0.19849988  0.85139779     0.12100
H1469       H  0.05071509  0.27720693  0.83713192     0.12000
H1470       H  0.06782845  0.30465149  0.88758296     0.11800
H1471       H  0.09994949  0.30478480  0.93715750     0.12300
H1472       H  0.15187621  0.22208723  0.90359434     0.14300
C1473       C  0.25549646  0.17492032  0.95545552    -0.05800
C1474       C  0.27878660  0.17853129  0.93129734    -0.05700
C1475       C  0.28876875  0.15187543  0.91320256    -0.23900
C1476       C  0.27542435  0.12142647  0.91898485     0.18400
C1477       C  0.25324195  0.11759861  0.94439262     0.15600
C1478       C  0.24397317  0.14405283  0.96262696    -0.18900
C1479       C  0.23927412  0.08768055  0.95027312    -0.20700
C1480       C  0.24565897  0.06202889  0.92989039    -0.13300
C1481       C  0.26668909  0.06560198  0.90374284     0.03400
C1482       C  0.28250016  0.09508562  0.89902346    -0.25400
H1483       H  0.28832519  0.20198322  0.92564138     0.08500
H1484       H  0.30601414  0.15527082  0.89397527     0.12100
H1485       H  0.22661768  0.14067200  0.98180345     0.12000
H1486       H  0.22233501  0.08446340  0.96982145     0.11800
H1487       H  0.23345203  0.03950718  0.93407041     0.12300
H1488       H  0.29860261  0.09806264  0.87872279     0.14300
C1489       C  0.66212098  0.92564539  0.24014315    -0.05800
C1490       C  0.65702419  0.92174165  0.27349039    -0.05700
C1491       C  0.63551796  0.89870239  0.28497894    -0.23900
C1492       C  0.61853956  0.87919204  0.26335308     0.18400
C1493       C  0.62413982  0.88219582  0.22985441     0.15600
C1494       C  0.64596639  0.90518633  0.21849315    -0.18900
C1495       C  0.60719407  0.86271703  0.20820353    -0.20700
C1496       C  0.58421713  0.84111260  0.21954565    -0.13300
C1497       C  0.57771827  0.83845589  0.25279361     0.03400
C1498       C  0.59551006  0.85730678  0.27461359    -0.25400
H1499       H  0.66918933  0.93694365  0.29075280     0.08500
H1500       H  0.63167630  0.89660796  0.31077473     0.12100
H1501       H  0.64965232  0.90768191  0.19269898     0.12000
H1502       H  0.61127497  0.86460667  0.18242800     0.11800
H1503       H  0.57108012  0.82690715  0.20213694     0.12300
H1504       H  0.59101332  0.85548498  0.30033038     0.14300
C1505       C  0.64970625  0.06881839  0.22329850    -0.05800
C1506       C  0.63096950  0.07894923  0.19692951    -0.05700
C1507       C  0.60811367  0.10307783  0.20063599    -0.23900
C1508       C  0.60317434  0.11719554  0.23090115     0.18400
C1509       C  0.62166803  0.10691702  0.25763374     0.15600
C1510       C  0.64502230  0.08312634  0.25358715    -0.18900
C1511       C  0.61620325  0.12029230  0.28810680    -0.20700
C1512       C  0.59231798  0.14321131  0.29222490    -0.13300
C1513       C  0.57378598  0.15365920  0.26587185     0.03400
C1514       C  0.57967582  0.14092371  0.23507537    -0.25400
H1515       H  0.63425417  0.06843669  0.17326479     0.08500
H1516       H  0.59413099  0.11050316  0.17987729     0.12100
H1517       H  0.65912327  0.07532917  0.27414154     0.12000
H1518       H  0.63006981  0.11268026  0.30887413     0.11800
H1519       H  0.58826089  0.15281259  0.31617353     0.12300
H1520       H  0.56524292  0.14859649  0.21471109     0.14300
C1521       C  0.73958132  0.07260839  0.11346801    -0.05800
C1522       C  0.71509922  0.08371824  0.09311768    -0.05700
C1523       C  0.71778675  0.11376878  0.07818519    -0.23900
C1524       C  0.74453721  0.13332425  0.08420491     0.18400
C1525       C  0.76852825  0.12254048  0.10567570     0.15600
C1526       C  0.76606494  0.09228506  0.11971695    -0.18900
C1527       C  0.79494607  0.14195030  0.11252647    -0.20700
C1528       C  0.79871611  0.17109264  0.09672097    -0.13300
C1529       C  0.77609755  0.18138256  0.07385237     0.03400
C1530       C  0.74837776  0.16293322  0.06850217    -0.25400
H1531       H  0.69419197  0.06907968  0.08857632     0.08500
H1532       H  0.69901477  0.12169558  0.06196657     0.12100
H1533       H  0.78461849  0.08426552  0.13620286     0.12000
H1534       H  0.81326321  0.13410946  0.12932930     0.11800
H1535       H  0.82015098  0.18495996  0.10130351     0.12300
H1536       H  0.73092787  0.17055103  0.05068096     0.14300
C1537       C  0.76447445  0.81126086  0.07044312    -0.05800
C1538       C  0.73206866  0.81996792  0.07164485    -0.05700
C1539       C  0.72280076  0.84810346  0.08775275    -0.23900
C1540       C  0.74593348  0.86794657  0.10231610     0.18400
C1541       C  0.77824128  0.85807217  0.10250348     0.15600
C1542       C  0.78703805  0.82962217  0.08739500    -0.18900
C1543       C  0.80174025  0.87750699  0.11633142    -0.20700
C1544       C  0.79357112  0.90697677  0.12941371    -0.13300
C1545       C  0.76163813  0.91763506  0.12927437     0.03400
C1546       C  0.73772823  0.89777127  0.11590098    -0.25400
H1547       H  0.71433675  0.80622847  0.05853612     0.08500
H1548       H  0.69784676  0.85508488  0.08752400     0.12100
H1549       H  0.81210473  0.82284743  0.08687939     0.12000
H1550       H  0.82661842  0.87017190  0.11651223     0.11800
H1551       H  0.81251116  0.92149668  0.13963406     0.12300
H1552       H  0.71298317  0.90549880  0.11592986     0.14300
C1553       C  0.81986497  0.95421470  0.26067266    -0.05800
C1554       C  0.81388978  0.92755354  0.28048144    -0.05700
C1555       C  0.83941922  0.90905960  0.29225418    -0.23900
C1556       C  0.87115880  0.91694204  0.28416253     0.18400
C1557       C  0.87715369  0.94462557  0.26547211     0.15600
C1558       C  0.85167214  0.96318550  0.25439336    -0.18900
C1559       C  0.90846953  0.95256943  0.25661021    -0.20700
C1560       C  0.93361393  0.93222205  0.26448870    -0.13300
C1561       C  0.92803254  0.90401223  0.28202292     0.03400
C1562       C  0.89688441  0.89696236  0.29290031    -0.25400
H1563       H  0.78956788  0.92031705  0.28579612     0.08500
H1564       H  0.83430585  0.88800881  0.30665894     0.12100
H1565       H  0.85668998  0.98407174  0.23964806     0.12000
H1566       H  0.91335034  0.97380037  0.24236766     0.11800
H1567       H  0.95744879  0.93806160  0.25604260     0.12300
H1568       H  0.89242797  0.87500947  0.30614993     0.14300
C1569       C  0.91796656  0.12366545  0.27116757    -0.05800
C1570       C  0.91237530  0.09667976  0.29064095    -0.05700
C1571       C  0.88331759  0.07996152  0.28853213    -0.23900
C1572       C  0.85922016  0.09017995  0.26717378     0.18400
C1573       C  0.86426161  0.11794225  0.24830051     0.15600
C1574       C  0.89348696  0.13442619  0.25043146    -0.18900
C1575       C  0.84051629  0.12803166  0.22658482    -0.20700
C1576       C  0.81293357  0.10963279  0.22201205    -0.13300
C1577       C  0.80812612  0.08135929  0.23974363     0.03400
C1578       C  0.83088647  0.07231420  0.26313902    -0.25400
H1579       H  0.93081696  0.08799599  0.30680722     0.08500
H1580       H  0.87994691  0.05867422  0.30312193     0.12100
H1581       H  0.89736022  0.15547892  0.23558007     0.12000
H1582       H  0.84397258  0.14931244  0.21200019     0.11800
H1583       H  0.79596983  0.11668451  0.20352171     0.12300
H1584       H  0.82778350  0.05002896  0.27624100     0.14300
C1585       C  0.43185832  0.84111799  0.25908227    -0.05800
C1586       C  0.41876737  0.84044572  0.22778018    -0.05700
C1587       C  0.39417529  0.86134938  0.21905654    -0.23900
C1588       C  0.38197122  0.88323573  0.24151181     0.18400
C1589       C  0.39400367  0.88349463  0.27340544     0.15600
C1590       C  0.41898350  0.86255271  0.28195799    -0.18900
C1591       C  0.38112645  0.90505502  0.29597375    -0.20700
C1592       C  0.35729375  0.92682445  0.28670241    -0.13300
C1593       C  0.34634878  0.92761815  0.25465286     0.03400
C1594       C  0.35842779  0.90535276  0.23234003    -0.25400
H1595       H  0.42791004  0.82407408  0.20974544     0.08500
H1596       H  0.38496195  0.86065489  0.19459375     0.12100
H1597       H  0.42844178  0.86306759  0.30633552     0.12000
H1598       H  0.38988972  0.90547574  0.32060570     0.11800
H1599       H  0.34835781  0.94388060  0.30419139     0.12300
H1600       H  0.34980945  0.90562557  0.20761958     0.14300
C1601       C  0.34307480  0.07230279  0.24685038    -0.05800
C1602       C  0.34668728  0.07971070  0.27978536    -0.05700
C1603       C  0.36839252  0.10319147  0.28977695    -0.23900
C1604       C  0.38685246  0.11989043  0.26704269     0.18400
C1605       C  0.38281359  0.11344012  0.23381057     0.15600
C1606       C  0.36100682  0.08971698  0.22392303    -0.18900
C1607       C  0.40112690  0.13040293  0.21109991    -0.20700
C1608       C  0.42381172  0.15293930  0.22125290    -0.13300
C1609       C  0.42873413  0.15887077  0.25432161     0.03400
C1610       C  0.40971343  0.14246619  0.27706005    -0.25400
H1611       H  0.33329608  0.06677274  0.29798692     0.08500
H1612       H  0.37109733  0.10793305  0.31536684     0.12100
H1613       H  0.35839871  0.08450214  0.19840922     0.12000
H1614       H  0.39827488  0.12587405  0.18549079     0.11800
H1615       H  0.43808966  0.16512047  0.20320476     0.12300
H1616       H  0.41301198  0.14686239  0.30265480     0.14300
C1617       C  0.26922596  0.92112759  0.11991606    -0.05800
C1618       C  0.25774869  0.92730104  0.08870809    -0.05700
C1619       C  0.25145044  0.90224204  0.06738867    -0.23900
C1620       C  0.25557324  0.87039728  0.07723473     0.18400
C1621       C  0.26835602  0.86362687  0.10810055     0.15600
C1622       C  0.27566992  0.88922954  0.12921429    -0.18900
C1623       C  0.27183237  0.83140665  0.11767998    -0.20700
C1624       C  0.26096304  0.80638684  0.09766599    -0.13300
C1625       C  0.24656903  0.81328594  0.06778027     0.03400
C1626       C  0.24524639  0.84533139  0.05732284    -0.25400
H1627       H  0.25272939  0.95163084  0.08116843     0.08500
H1628       H  0.24185726  0.90774941  0.04368663     0.12100
H1629       H  0.28424727  0.88430691  0.15344163     0.12000
H1630       H  0.28174135  0.82562103  0.14116681     0.11800
H1631       H  0.26235555  0.78190690  0.10618681     0.12300
H1632       H  0.23467619  0.85092861  0.03403700     0.14300
C1633       C  0.23308772  0.18196511  0.08339478    -0.05800
C1634       C  0.21301130  0.17683367  0.11006463    -0.05700
C1635       C  0.21620044  0.14926660  0.12893364    -0.23900
C1636       C  0.23890278  0.12591025  0.12083117     0.18400
C1637       C  0.26006666  0.13135165  0.09477755     0.15600
C1638       C  0.25736901  0.15966492  0.07652637    -0.18900
C1639       C  0.28254761  0.10773019  0.08660128    -0.20700
C1640       C  0.28359146  0.07874505  0.10364416    -0.13300
C1641       C  0.26197681  0.07277845  0.12892910     0.03400
C1642       C  0.24001179  0.09676325  0.13766707    -0.25400
H1643       H  0.19406402  0.19365007  0.11555447     0.08500
H1644       H  0.19995752  0.14555908  0.14899088     0.12100
H1645       H  0.27252814  0.16320075  0.05556754     0.12000
H1646       H  0.29897775  0.11146604  0.06671355     0.11800
H1647       H  0.30092760  0.06076885  0.09670193     0.12300
H1648       H  0.22364268  0.09270577  0.15757448     0.14300
C1649       C  0.19092939  0.92429243  0.25337881    -0.05800
C1650       C  0.18522515  0.89559014  0.23681804    -0.05700
C1651       C  0.15746670  0.87807371  0.24269989    -0.23900
C1652       C  0.13458141  0.88963381  0.26446873     0.18400
C1653       C  0.14086126  0.91748226  0.28273958     0.15600
C1654       C  0.16951124  0.93432627  0.27756861    -0.18900
C1655       C  0.11739037  0.92909212  0.30407252    -0.20700
C1656       C  0.08728494  0.91428727  0.30576353    -0.13300
C1657       C  0.08044103  0.88780411  0.28608610     0.03400
C1658       C  0.10470532  0.87488380  0.26658406    -0.25400
H1659       H  0.20145417  0.88765468  0.21807007     0.08500
H1660       H  0.15296950  0.85660025  0.22872922     0.12100
H1661       H  0.17361405  0.95679499  0.29001753     0.12000
H1662       H  0.12186478  0.95030221  0.31843914     0.11800
H1663       H  0.06905123  0.92423558  0.32136618     0.12300
H1664       H  0.09991756  0.85385783  0.25198059     0.14300
C1665       C  0.06941525  0.10617679  0.27219665    -0.05800
C1666       C  0.06516654  0.08050263  0.25066912    -0.05700
C1667       C  0.09068034  0.06062387  0.24235940    -0.23900
C1668       C  0.12127912  0.06624238  0.25497790     0.18400
C1669       C  0.12587989  0.09103840  0.27770515     0.15600
C1670       C  0.09973464  0.11068806  0.28657135    -0.18900
C1671       C  0.15680888  0.09639476  0.29005016    -0.20700
C1672       C  0.18292925  0.07803835  0.27928564    -0.13300
C1673       C  0.17867540  0.05401061  0.25588263     0.03400
C1674       C  0.14746215  0.04799921  0.24438570    -0.25400
H1675       H  0.04213484  0.07641218  0.23937675     0.08500
H1676       H  0.08669254  0.04152819  0.22510413     0.12100
H1677       H  0.10342653  0.13057644  0.30296384     0.12000
H1678       H  0.16091460  0.11516921  0.30761640     0.11800
H1679       H  0.20651677  0.08300817  0.28886772     0.12300
H1680       H  0.14345662  0.02923310  0.22675355     0.14300
loop_ 
_geom_bond_atom_site_label_1 
_geom_bond_atom_site_label_2 
_geom_bond_distance 
_geom_bond_site_symmetry_2 
_ccdc_geom_bond_type 
Fe1          O17   2.077       .  S
Fe1           O7   2.050       .  S
Fe1          O14   2.054   1_565  S
Fe1           O6   2.066   1_565  S
Fe1          O12   1.950       .  S
Fe2           O5   2.057       .  S
Fe2           O9   2.075       .  S
Fe2          O13   2.094   1_565  S
Fe2          O18   2.062   1_565  S
Fe2          O12   1.961       .  S
Fe3          O21   2.085       .  S
Fe3           O8   2.084   1_565  S
Fe3          O15   2.091       .  S
Fe3           O4   2.090   1_565  S
Fe3          O12   1.967       .  S
O4           C11   1.272       .  A
O5           C19   1.269       .  A
O6           C11   1.267       .  A
O7           C10   1.272       .  A
O8           C20   1.275       .  A
O9           C22   1.264       .  A
C10          O15   1.276       .  A
C10        C1649   1.468       .  S
C11        C1673   1.495       .  S
O13          C16   1.277       .  A
O14          C16   1.272       .  A
C16        C1641   1.481       .  S
O17          C22   1.267       .  A
O18          C20   1.270       .  A
C19          O21   1.274       .  A
C19        C1593   1.478       .  S
C20        C1601   1.488       .  S
C22        C1617   1.480       .  S
Fe23         O39   2.055       .  S
Fe23         O29   2.045       .  S
Fe23         O36   2.035   1_545  S
Fe23         O28   2.059   1_545  S
Fe23         O34   1.938       .  S
Fe24         O27   2.071   1_565  S
Fe24         O31   2.063   1_565  S
Fe24         O35   2.098       .  S
Fe24         O40   2.051       .  S
Fe24         O34   1.954   1_565  S
Fe25         O43   2.072       .  S
Fe25         O30   2.095   1_545  S
Fe25         O37   2.116       .  S
Fe25         O26   2.074   1_545  S
Fe25         O34   1.952       .  S
O26          C33   1.271       .  A
O27          C41   1.273       .  A
O28          C33   1.269       .  A
O29          C32   1.266       .  A
O30          C42   1.276       .  A
O31          C44   1.264       .  A
C32          O37   1.278       .  A
C32        C1577   1.477       .  S
C33        C1553   1.479       .  S
O35          C38   1.277       .  A
O36          C38   1.269       .  A
C38        C1545   1.482       .  S
O39          C44   1.264       .  A
O40          C42   1.269       .  A
C41          O43   1.275       .  A
C41        C1505   1.480       .  S
C42        C1489   1.487       .  S
C44        C1521   1.471       .  S
Fe45         O61   2.056   1_554  S
Fe45         O51   2.040   1_554  S
Fe45         O58   2.059       .  S
Fe45         O50   2.056       .  S
Fe45         O56   1.936       .  S
Fe46         O49   2.059   1_554  S
Fe46         O53   2.105   1_554  S
Fe46         O57   2.079       .  S
Fe46         O62   2.061       .  S
Fe46         O56   1.949       .  S
Fe47         O65   2.099   1_554  S
Fe47         O52   2.078       .  S
Fe47         O59   2.086   1_554  S
Fe47         O48   2.108       .  S
Fe47         O56   1.952       .  S
O48          C55   1.282       .  A
O49          C63   1.274       .  A
O50          C55   1.275       .  A
O51          C54   1.263       .  A
O52          C64   1.272       .  A
O53          C66   1.278       .  A
C54          O59   1.269       .  A
C54        C1473   1.482       .  S
C55        C1633   1.475       .  S
O57          C60   1.265       .  A
O58          C60   1.263       .  A
C60        C1441   1.482       .  S
O61          C66   1.272       .  A
O62          C64   1.268       .  A
C63          O65   1.281       .  A
C63        C1417   1.487       .  S
C64        C1433   1.486       .  S
C66        C1465   1.489       .  S
Fe67         O83   2.048       .  S
Fe67         O73   2.054       .  S
Fe67         O80   2.072   1_554  S
Fe67         O72   2.043   1_554  S
Fe67         O78   1.940       .  S
Fe68         O71   2.049       .  S
Fe68         O75   2.098       .  S
Fe68         O79   2.060   1_554  S
Fe68         O84   2.061   1_554  S
Fe68         O78   1.952       .  S
Fe69         O87   2.101       .  S
Fe69         O74   2.097   1_554  S
Fe69         O81   2.096       .  S
Fe69         O70   2.113   1_554  S
Fe69         O78   1.953       .  S
O70          C77   1.282       .  A
O71          C85   1.272       .  A
O72          C77   1.272       .  A
O73          C76   1.264       .  A
O74          C86   1.275       .  A
O75          C88   1.275       .  A
C76          O81   1.271       .  A
C76        C1625   1.487       .  S
C77        C1401   1.470       .  S
O79          C82   1.263       .  A
O80          C82   1.267       .  A
C82        C1369   1.479       .  S
O83          C88   1.269       .  A
O84          C86   1.268       .  A
C85          O87   1.281       .  A
C85        C1337   1.487       .  S
C86        C1353   1.494       .  S
C88        C1377   1.474       .  S
Fe89        O105   2.047       .  S
Fe89         O95   2.049       .  S
Fe89        O102   2.053   1_455  S
Fe89         O94   2.033   1_455  S
Fe89        O100   1.963       .  S
Fe90         O93   2.054       .  S
Fe90         O97   2.079       .  S
Fe90        O101   2.080   1_455  S
Fe90        O106   2.060   1_455  S
Fe90        O100   1.987       .  S
Fe91        O109   2.075       .  S
Fe91         O96   2.083   1_455  S
Fe91        O103   2.099       .  S
Fe91         O92   2.077   1_455  S
Fe91        O100   1.992       .  S
O92          C99   1.269       .  A
O93         C107   1.268       .  A
O94          C99   1.263       .  A
O95          C98   1.267       .  A
O96         C108   1.274       .  A
O97         C110   1.269       .  A
C98         O103   1.274       .  A
C98        C1457   1.479       .  S
C99        C1313   1.466       .  S
O101        C104   1.268       .  A
O102        C104   1.266       .  A
C104       C1289   1.479       .  S
O105        C110   1.265       .  A
O106        C108   1.269       .  A
C107        O109   1.271       .  A
C107       C1265   1.478       .  S
C108       C1249   1.488       .  S
C110       C1297   1.479       .  S
Fe111       O127   2.050   1_455  S
Fe111       O117   2.044   1_455  S
Fe111       O124   2.068       .  S
Fe111       O116   2.050       .  S
Fe111       O122   1.948       .  S
Fe112       O115   2.073   1_455  S
Fe112       O119   2.108   1_455  S
Fe112       O123   2.089       .  S
Fe112       O128   2.079       .  S
Fe112       O122   1.961       .  S
Fe113       O131   2.082   1_455  S
Fe113       O118   2.060       .  S
Fe113       O125   2.082   1_455  S
Fe113       O114   2.094       .  S
Fe113       O122   1.967       .  S
O114        C121   1.277       .  A
O115        C129   1.272       .  A
O116        C121   1.273       .  A
O117        C120   1.264       .  A
O118        C130   1.270       .  A
O119        C132   1.279       .  A
C120        O125   1.269       .  A
C120       C1241   1.480       .  S
C121       C1449   1.476       .  S
O123        C126   1.268       .  A
O124        C126   1.266       .  A
C126       C1665   1.489       .  S
O127        C132   1.269       .  A
O128        C130   1.274       .  A
C129        O131   1.274       .  A
C129       C1201   1.485       .  S
C130       C1217   1.481       .  S
C132       C1569   1.485       .  S
Fe133       O149   2.030   1_655  S
Fe133       O139   2.059   1_655  S
Fe133       O146   2.065       .  S
Fe133       O138   2.040       .  S
Fe133       O144   1.943       .  S
Fe134       O137   2.043   1_655  S
Fe134       O141   2.106   1_655  S
Fe134       O145   2.063       .  S
Fe134       O150   2.072       .  S
Fe134       O144   1.953       .  S
Fe135       O153   2.104       .  S
Fe135       O140   2.071   1_455  S
Fe135       O147   2.068       .  S
Fe135       O136   2.120   1_455  S
Fe135       O144   1.954   1_455  S
O136        C143   1.284       .  A
O137        C151   1.267       .  A
O138        C143   1.273       .  A
O139        C142   1.262       .  A
O140        C152   1.272       .  A
O141        C154   1.279       .  A
C142        O147   1.264       .  A
C142       C1385   1.463       .  S
C143       C1193   1.478       .  S
O145        C148   1.262       .  A
O146        C148   1.264       .  A
C148       C1561   1.472       .  S
O149        C154   1.270       .  A
O150        C152   1.272       .  A
C151        O153   1.277       .  A
C151       C1153   1.490       .  S
C152       C1169   1.481       .  S
C154       C1657   1.475       .  S
Fe155       O171   2.064   1_554  S
Fe155       O161   2.044   1_554  S
Fe155       O168   2.039       .  S
Fe155       O160   2.037       .  S
Fe155       O166   1.941       .  S
Fe156       O159   2.055   1_554  S
Fe156       O163   2.074   1_554  S
Fe156       O167   2.100       .  S
Fe156       O172   2.057       .  S
Fe156       O166   1.956       .  S
Fe157       O175   2.077   1_554  S
Fe157       O162   2.085       .  S
Fe157       O169   2.093   1_554  S
Fe157       O158   2.087       .  S
Fe157       O166   1.962       .  S
O158        C165   1.272       .  A
O159        C173   1.268       .  A
O160        C165   1.265       .  A
O161        C164   1.269       .  A
O162        C174   1.276       .  A
O163        C176   1.267       .  A
C164        O169   1.275       .  A
C164       C1145   1.477       .  S
C165       C1537   1.475       .  S
O167        C170   1.274       .  A
O168        C170   1.264       .  A
C170       C1185   1.484       .  S
O171        C176   1.268       .  A
O172        C174   1.271       .  A
C173        O175   1.273       .  A
C173       C1089   1.479       .  S
C174       C1113   1.480       .  S
C176       C1121   1.480       .  S
Fe177       O193   2.073   1_565  S
Fe177       O183   2.047   1_565  S
Fe177       O190   2.047       .  S
Fe177       O182   2.053       .  S
Fe177       O188   1.933       .  S
Fe178       O181   2.078   1_565  S
Fe178       O185   2.057   1_565  S
Fe178       O189   2.104       .  S
Fe178       O194   2.040       .  S
Fe178       O188   1.947       .  S
Fe179       O197   2.064       .  S
Fe179       O184   2.090   1_545  S
Fe179       O191   2.105       .  S
Fe179       O180   2.073   1_545  S
Fe179       O188   1.952   1_545  S
O180        C187   1.268       .  A
O181        C195   1.273       .  A
O182        C187   1.267       .  A
O183        C186   1.271       .  A
O184        C196   1.276       .  A
O185        C198   1.263       .  A
C186        O191   1.278       .  A
C186       C1305   1.478       .  S
C187       C1073   1.472       .  S
O189        C192   1.277       .  A
O190        C192   1.269       .  A
C192       C1393   1.480       .  S
O193        C198   1.269       .  A
O194        C196   1.266       .  A
C195        O197   1.272       .  A
C195       C1041   1.486       .  S
C196       C1057   1.474       .  S
C198       C1481   1.474       .  S
Fe199       O215   2.036   1_455  S
Fe199       O205   2.040   1_455  S
Fe199       O212   2.069       .  S
Fe199       O204   2.038       .  S
Fe199       O210   1.933       .  S
Fe200       O203   2.039   1_455  S
Fe200       O207   2.096   1_455  S
Fe200       O211   2.055       .  S
Fe200       O216   2.060       .  S
Fe200       O210   1.951       .  S
Fe201       O219   2.104       .  S
Fe201       O206   2.083   1_655  S
Fe201       O213   2.093       .  S
Fe201       O202   2.109   1_655  S
Fe201       O210   1.959   1_655  S
O202        C209   1.283       .  A
O203        C217   1.269       .  A
O204        C209   1.274       .  A
O205        C208   1.262       .  A
O206        C218   1.272       .  A
O207        C220   1.274       .  A
C208        O213   1.270       .  A
C208       C1129   1.490       .  S
C209       C1361   1.476       .  S
O211        C214   1.262       .  A
O212        C214   1.265       .  A
C214       C1081   1.465       .  S
O215        C220   1.267       .  A
O216        C218   1.268       .  A
C217        O219   1.281       .  A
C217        C993   1.482       .  S
C218       C1009   1.487       .  S
C220       C1033   1.464       .  S
Fe221       O237   2.071       .  S
Fe221       O227   2.036       .  S
Fe221       O234   2.031   1_554  S
Fe221       O226   2.066   1_554  S
Fe221       O232   1.935       .  S
Fe222       O225   2.063       .  S
Fe222       O229   2.065       .  S
Fe222       O233   2.096   1_554  S
Fe222       O238   2.051   1_554  S
Fe222       O232   1.944       .  S
Fe223       O241   2.059       .  S
Fe223       O228   2.086   1_554  S
Fe223       O235   2.102       .  S
Fe223       O224   2.070   1_554  S
Fe223       O232   1.948       .  S
O224        C231   1.268       .  A
O225        C239   1.271       .  A
O226        C231   1.268       .  A
O227        C230   1.269       .  A
O228        C240   1.275       .  A
O229        C242   1.263       .  A
C230        O235   1.278       .  A
C230       C1529   1.473       .  S
C231        C977   1.474       .  S
O233        C236   1.277       .  A
O234        C236   1.269       .  A
C236       C1321   1.477       .  S
O237        C242   1.266       .  A
O238        C240   1.269       .  A
C239        O241   1.271       .  A
C239        C945   1.474       .  S
C240        C969   1.481       .  S
C242       C1233   1.476       .  S
Fe243       O259   2.038   1_545  S
Fe243       O249   2.074   1_545  S
Fe243       O256   2.057       .  S
Fe243       O248   2.036       .  S
Fe243       O254   1.948       .  S
Fe244       O247   2.060       .  S
Fe244       O251   2.101       .  S
Fe244       O255   2.067   1_565  S
Fe244       O260   2.091   1_565  S
Fe244       O254   1.952   1_565  S
Fe245       O263   2.086   1_545  S
Fe245       O250   2.060       .  S
Fe245       O257   2.051   1_545  S
Fe245       O246   2.117       .  S
Fe245       O254   1.958       .  S
O246        C253   1.276       .  A
O247        C261   1.266       .  A
O248        C253   1.263       .  A
O249        C252   1.270       .  A
O250        C262   1.274       .  A
O251        C264   1.278       .  A
C252        O257   1.266       .  A
C252       C1025   1.457       .  S
C253       C1281   1.479       .  S
O255        C258   1.265       .  A
O256        C258   1.264       .  A
C258        C985   1.464       .  S
O259        C264   1.268       .  A
O260        C262   1.278       .  A
C261        O263   1.272       .  A
C261        C913   1.488       .  S
C262        C937   1.477       .  S
C264       C1137   1.472       .  S
Fe265       O281   2.040       .  S
Fe265       O271   2.031       .  S
Fe265       O278   2.046       .  S
Fe265       O270   2.040       .  S
Fe265       O276   1.961       .  S
Fe266       O269   2.050       .  S
Fe266       O273   2.075       .  S
Fe266       O277   2.072       .  S
Fe266       O282   2.056       .  S
Fe266       O276   1.982       .  S
Fe267       O285   2.087       .  S
Fe267       O272   2.079       .  S
Fe267       O279   2.095       .  S
Fe267       O268   2.094       .  S
Fe267       O276   1.988       .  S
O268        C275   1.273       .  A
O269        C283   1.269       .  A
O270        C275   1.266       .  A
O271        C274   1.263       .  A
O272        C284   1.271       .  A
O273        C286   1.266       .  A
C274        O279   1.272       .  A
C274        C881   1.468       .  S
C275        C897   1.479       .  S
O277        C280   1.270       .  A
O278        C280   1.268       .  A
C280        C865   1.479       .  S
O281        C286   1.261       .  A
O282        C284   1.267       .  A
C283        O285   1.276       .  A
C283       C1513   1.477       .  S
C284       C1609   1.487       .  S
C286        C849   1.479       .  S
Fe287       O303   2.042       .  S
Fe287       O293   2.050       .  S
Fe287       O300   2.072       .  S
Fe287       O292   2.047       .  S
Fe287       O298   1.940       .  S
Fe288       O291   2.047       .  S
Fe288       O295   2.088       .  S
Fe288       O299   2.062       .  S
Fe288       O304   2.057       .  S
Fe288       O298   1.955       .  S
Fe289       O307   2.101       .  S
Fe289       O294   2.073       .  S
Fe289       O301   2.076       .  S
Fe289       O290   2.110       .  S
Fe289       O298   1.962       .  S
O290        C297   1.281       .  A
O291        C305   1.269       .  A
O292        C297   1.273       .  A
O293        C296   1.264       .  A
O294        C306   1.271       .  A
O295        C308   1.273       .  A
C296        O301   1.268       .  A
C296        C817   1.484       .  S
C297        C833   1.476       .  S
O299        C302   1.262       .  A
O300        C302   1.267       .  A
C302        C905   1.473       .  S
O303        C308   1.268       .  A
O304        C306   1.268       .  A
C305        O307   1.278       .  A
C305       C1329   1.482       .  S
C306       C1425   1.472       .  S
C308        C801   1.469       .  S
Fe309       O325   2.058       .  S
Fe309       O315   2.046       .  S
Fe309       O322   2.046       .  S
Fe309       O314   2.026       .  S
Fe309       O320   1.949       .  S
Fe310       O313   2.060       .  S
Fe310       O317   2.091       .  S
Fe310       O321   2.095       .  S
Fe310       O326   2.071       .  S
Fe310       O320   1.969       .  S
Fe311       O329   2.072       .  S
Fe311       O316   2.070       .  S
Fe311       O323   2.089       .  S
Fe311       O312   2.084       .  S
Fe311       O320   1.979       .  S
O312        C319   1.269       .  A
O313        C327   1.270       .  A
O314        C319   1.262       .  A
O315        C318   1.271       .  A
O316        C328   1.272       .  A
O317        C330   1.270       .  A
C318        O323   1.274       .  A
C318        C785   1.484       .  S
C319        C873   1.475       .  S
O321        C324   1.273       .  A
O322        C324   1.266       .  A
C324        C841   1.482       .  S
O325        C330   1.266       .  A
O326        C328   1.272       .  A
C327        O329   1.273       .  A
C327       C1273   1.480       .  S
C328       C1225   1.484       .  S
C330        C777   1.490       .  S
Fe331       O347   2.065       .  S
Fe331       O337   2.052       .  S
Fe331       O344   2.052       .  S
Fe331       O336   2.040       .  S
Fe331       O342   1.963       .  S
Fe332       O335   2.046       .  S
Fe332       O339   2.066       .  S
Fe332       O343   2.070       .  S
Fe332       O348   2.066       .  S
Fe332       O342   1.979       .  S
Fe333       O351   2.089       .  S
Fe333       O338   2.092       .  S
Fe333       O345   2.102       .  S
Fe333       O334   2.084       .  S
Fe333       O342   1.980       .  S
O334        C341   1.270       .  A
O335        C349   1.264       .  A
O336        C341   1.263       .  A
O337        C340   1.270       .  A
O338        C350   1.278       .  A
O339        C352   1.269       .  A
C340        O345   1.278       .  A
C340        C737   1.493       .  S
C341        C761   1.465       .  S
O343        C346   1.265       .  A
O344        C346   1.263       .  A
C346        C721   1.473       .  S
O347        C352   1.271       .  A
O348        C350   1.273       .  A
C349        O351   1.272       .  A
C349       C1161   1.483       .  S
C350       C1017   1.490       .  S
C352        C825   1.482       .  S
Fe353       O369   2.068       .  S
Fe353       O359   2.046       .  S
Fe353       O366   2.040       .  S
Fe353       O358   2.041       .  S
Fe353       O364   1.952       .  S
Fe354       O357   2.068       .  S
Fe354       O361   2.070       .  S
Fe354       O365   2.095       .  S
Fe354       O370   2.054       .  S
Fe354       O364   1.968       .  S
Fe355       O373   2.076       .  S
Fe355       O360   2.113       .  S
Fe355       O367   2.120       .  S
Fe355       O356   2.074       .  S
Fe355       O364   1.969       .  S
O356        C363   1.267       .  A
O357        C371   1.270       .  A
O358        C363   1.261       .  A
O359        C362   1.272       .  A
O360        C372   1.280       .  A
O361        C374   1.267       .  A
C362        O367   1.283       .  A
C362        C769   1.489       .  S
C363        C729   1.461       .  S
O365        C368   1.273       .  A
O366        C368   1.264       .  A
C368        C705   1.475       .  S
O369        C374   1.269       .  A
O370        C372   1.270       .  A
C371        O373   1.272       .  A
C371       C1409   1.487       .  S
C372       C1345   1.494       .  S
C374        C689   1.486       .  S
Fe375       O391   2.054       .  S
Fe375       O381   2.035       .  S
Fe375       O388   2.024       .  S
Fe375       O380   2.053       .  S
Fe375       O386   1.932       .  S
Fe376       O379   2.078       .  S
Fe376       O383   2.091       .  S
Fe376       O387   2.115       .  S
Fe376       O392   2.067       .  S
Fe376       O386   1.940       .  S
Fe377       O395   2.071       .  S
Fe377       O382   2.080       .  S
Fe377       O389   2.103       .  S
Fe377       O378   2.092       .  S
Fe377       O386   1.943       .  S
O378        C385   1.270       .  A
O379        C393   1.275       .  A
O380        C385   1.263       .  A
O381        C384   1.270       .  A
O382        C394   1.274       .  A
O383        C396   1.265       .  A
C384        O389   1.280       .  A
C384        C809   1.461       .  S
C385        C673   1.486       .  S
O387        C390   1.285       .  A
O388        C390   1.271       .  A
C390        C657   1.480       .  S
O391        C396   1.260       .  A
O392        C394   1.271       .  A
C393        O395   1.275       .  A
C393       C1585   1.486       .  S
C394       C1497   1.489       .  S
C396        C745   1.488       .  S
Fe397       O413   2.049       .  S
Fe397       O403   2.040       .  S
Fe397       O410   2.073       .  S
Fe397       O402   2.054       .  S
Fe397       O408   1.944       .  S
Fe398       O401   2.047       .  S
Fe398       O405   2.088       .  S
Fe398       O409   2.065       .  S
Fe398       O414   2.055       .  S
Fe398       O408   1.961       .  S
Fe399       O417   2.080       .  S
Fe399       O404   2.071       .  S
Fe399       O411   2.090       .  S
Fe399       O400   2.082       .  S
Fe399       O408   1.965       .  S
O400        C407   1.276       .  A
O401        C415   1.269       .  A
O402        C407   1.274       .  A
O403        C406   1.264       .  A
O404        C416   1.271       .  A
O405        C418   1.272       .  A
C406        O411   1.271       .  A
C406        C633   1.488       .  S
C407        C649   1.475       .  S
O409        C412   1.265       .  A
O410        C412   1.269       .  A
C412        C681   1.477       .  S
O413        C418   1.268       .  A
O414        C416   1.268       .  A
C415        O417   1.274       .  A
C415        C953   1.472       .  S
C416       C1105   1.480       .  S
C418        C889   1.478       .  S
Fe419       O435   2.036       .  S
Fe419       O425   2.036       .  S
Fe419       O432   2.058       .  S
Fe419       O424   2.040       .  S
Fe419       O430   1.935       .  S
Fe420       O423   2.043       .  S
Fe420       O427   2.107       .  S
Fe420       O431   2.071       .  S
Fe420       O436   2.072       .  S
Fe420       O430   1.944       .  S
Fe421       O439   2.095       .  S
Fe421       O426   2.068       .  S
Fe421       O433   2.080       .  S
Fe421       O422   2.107       .  S
Fe421       O430   1.952       .  S
O422        C429   1.283       .  A
O423        C437   1.269       .  A
O424        C429   1.275       .  A
O425        C428   1.260       .  A
O426        C438   1.270       .  A
O427        C440   1.281       .  A
C428        O433   1.266       .  A
C428        C609   1.478       .  S
C429        C665   1.474       .  S
O431        C434   1.263       .  A
O432        C434   1.261       .  A
C434        C641   1.480       .  S
O435        C440   1.271       .  A
O436        C438   1.271       .  A
C437        O439   1.278       .  A
C437       C1001   1.482       .  S
C438       C1177   1.486       .  S
C440        C593   1.478       .  S
Fe441       O457   2.060       .  S
Fe441       O447   2.045       .  S
Fe441       O454   2.046       .  S
Fe441       O446   2.059       .  S
Fe441       O452   1.958       .  S
Fe442       O445   2.048       .  S
Fe442       O449   2.055       .  S
Fe442       O453   2.073       .  S
Fe442       O458   2.051       .  S
Fe442       O452   1.975       .  S
Fe443       O461   2.076       .  S
Fe443       O448   2.081       .  S
Fe443       O455   2.087       .  S
Fe443       O444   2.075       .  S
Fe443       O452   1.975       .  S
O444        C451   1.269       .  A
O445        C459   1.266       .  A
O446        C451   1.266       .  A
O447        C450   1.267       .  A
O448        C460   1.274       .  A
O449        C462   1.264       .  A
C450        O455   1.273       .  A
C450        C601   1.466       .  S
C451        C585   1.468       .  S
O453        C456   1.269       .  A
O454        C456   1.267       .  A
C456        C553   1.471       .  S
O457        C462   1.267       .  A
O458        C460   1.269       .  A
C459        O461   1.271       .  A
C459       C1097   1.470       .  S
C460        C961   1.483       .  S
C462        C561   1.474       .  S
Fe463       O479   2.075       .  S
Fe463       O469   2.042       .  S
Fe463       O476   2.043       .  S
Fe463       O468   2.052       .  S
Fe463       O474   1.952       .  S
Fe464       O467   2.056       .  S
Fe464       O471   2.044       .  S
Fe464       O475   2.095       .  S
Fe464       O480   2.030       .  S
Fe464       O474   1.962       .  S
Fe465       O483   2.082       .  S
Fe465       O470   2.095       .  S
Fe465       O477   2.094       .  S
Fe465       O466   2.073       .  S
Fe465       O474   1.974       .  S
O466        C473   1.266       .  A
O467        C481   1.266       .  A
O468        C473   1.263       .  A
O469        C472   1.271       .  A
O470        C482   1.278       .  A
O471        C484   1.262       .  A
C472        O477   1.278       .  A
C472        C569   1.475       .  S
C473        C713   1.466       .  S
O475        C478   1.273       .  A
O476        C478   1.265       .  A
C478        C753   1.473       .  S
O479        C484   1.269       .  A
O480        C482   1.268       .  A
C481        O483   1.270       .  A
C481        C921   1.487       .  S
C482       C1065   1.480       .  S
C484        C617   1.469       .  S
Fe485       O501   2.025       .  S
Fe485       O491   2.070       .  S
Fe485       O498   2.049       .  S
Fe485       O490   2.026       .  S
Fe485       O496   1.937       .  S
Fe486       O489   2.055       .  S
Fe486       O493   2.112       .  S
Fe486       O497   2.076       .  S
Fe486       O502   2.092       .  S
Fe486       O496   1.959       .  S
Fe487       O505   2.085       .  S
Fe487       O492   2.062       .  S
Fe487       O499   2.080       .  S
Fe487       O488   2.100       .  S
Fe487       O496   1.968       .  S
O488        C495   1.272       .  A
O489        C503   1.267       .  A
O490        C495   1.260       .  A
O491        C494   1.272       .  A
O492        C504   1.274       .  A
O493        C506   1.279       .  A
C494        O499   1.274       .  A
C494        C697   1.489       .  S
C495        C545   1.469       .  S
O497        C500   1.266       .  A
O498        C500   1.264       .  A
C500        C537   1.475       .  S
O501        C506   1.267       .  A
O502        C504   1.279       .  A
C503        O505   1.272       .  A
C503       C1049   1.478       .  S
C504        C929   1.483       .  S
C506        C793   1.485       .  S
Fe507       O523   2.070       .  S
Fe507       O513   2.041       .  S
Fe507       O520   2.043       .  S
Fe507       O512   2.052       .  S
Fe507       O518   1.945       .  S
Fe508       O511   2.066       .  S
Fe508       O515   2.069       .  S
Fe508       O519   2.104       .  S
Fe508       O524   2.055       .  S
Fe508       O518   1.961       .  S
Fe509       O527   2.079       .  S
Fe509       O514   2.099       .  S
Fe509       O521   2.101       .  S
Fe509       O510   2.081       .  S
Fe509       O518   1.965       .  S
O510        C517   1.269       .  A
O511        C525   1.268       .  A
O512        C517   1.264       .  A
O513        C516   1.269       .  A
O514        C526   1.280       .  A
O515        C528   1.267       .  A
C516        O521   1.278       .  A
C516        C857   1.471       .  S
C517        C529   1.471       .  S
O519        C522   1.274       .  A
O520        C522   1.265       .  A
C522        C577   1.480       .  S
O523        C528   1.270       .  A
O524        C526   1.273       .  A
C525        O527   1.271       .  A
C525       C1209   1.489       .  S
C526       C1257   1.483       .  S
C528        C625   1.484       .  S
C529        C530   1.402       .  A
C529        C534   1.410       .  A
C530        C531   1.392       .  A
C530        H539   1.084       .  S
C531        C532   1.400       .  A
C531        H540   1.084       .  S
C532        C538   1.398       .  A
C532        C533   1.414       .  A
C533        C535   1.409       .  A
C533        C534   1.412       .  A
C534        H541   1.084       .  S
C535        C536   1.407       .  A
C535        H542   1.083       .  S
C536        C537   1.403       .  A
C536        H543   1.083       .  S
C537        C538   1.403       .  A
C538        H544   1.085       .  S
C545        C546   1.406       .  A
C545        C550   1.405       .  A
C546        C547   1.392       .  A
C546        H555   1.084       .  S
C547        C548   1.399       .  A
C547        H556   1.084       .  S
C548        C554   1.396       .  A
C548        C549   1.414       .  A
C549        C551   1.404       .  A
C549        C550   1.404       .  A
C550        H557   1.085       .  S
C551        C552   1.400       .  A
C551        H558   1.084       .  S
C552        C553   1.404       .  A
C552        H559   1.083       .  S
C553        C554   1.403       .  A
C554        H560   1.085       .  S
C561        C562   1.405       .  A
C561        C566   1.403       .  A
C562        C563   1.402       .  A
C562        H571   1.083       .  S
C563        C564   1.405       .  A
C563        H572   1.083       .  S
C564        C570   1.406       .  A
C564        C565   1.413       .  A
C565        C567   1.398       .  A
C565        C566   1.396       .  A
C566        H573   1.085       .  S
C567        C568   1.391       .  A
C567        H574   1.084       .  S
C568        C569   1.406       .  A
C568        H575   1.084       .  S
C569        C570   1.408       .  A
C570        H576   1.084       .  S
C577        C578   1.404       .  A
C577        C582   1.406       .  A
C578        C579   1.403       .  A
C578        H587   1.083       .  S
C579        C580   1.406       .  A
C579        H588   1.084       .  S
C580        C586   1.408       .  A
C580        C581   1.414       .  A
C581        C583   1.403       .  A
C581        C582   1.402       .  A
C582        H589   1.085       .  S
C583        C584   1.396       .  A
C583        H590   1.084       .  S
C584        C585   1.401       .  A
C584        H591   1.084       .  S
C585        C586   1.406       .  A
C586        H592   1.084       .  S
C593        C594   1.404       .  A
C593        C598   1.407       .  A
C594        C595   1.400       .  A
C594        H603   1.083       .  S
C595        C596   1.404       .  A
C595        H604   1.083       .  S
C596        C602   1.404       .  A
C596        C597   1.414       .  A
C597        C599   1.402       .  A
C597        C598   1.399       .  A
C598        H605   1.084       .  S
C599        C600   1.395       .  A
C599        H606   1.083       .  S
C600        C601   1.402       .  A
C600        H607   1.084       .  S
C601        C602   1.404       .  A
C602        H608   1.084       .  S
C609        C610   1.404       .  A
C609        C614   1.407       .  A
C610        C611   1.404       .  A
C610        H619   1.083       .  S
C611        C612   1.407       .  A
C611        H620   1.083       .  S
C612        C618   1.404       .  A
C612        C613   1.411       .  A
C613        C615   1.401       .  A
C613        C614   1.393       .  A
C614        H621   1.085       .  S
C615        C616   1.391       .  A
C615        H622   1.084       .  S
C616        C617   1.402       .  A
C616        H623   1.083       .  S
C617        C618   1.408       .  A
C618        H624   1.084       .  S
C625        C626   1.405       .  A
C625        C630   1.415       .  A
C626        C627   1.388       .  A
C626        H635   1.083       .  S
C627        C628   1.397       .  A
C627        H636   1.084       .  S
C628        C634   1.394       .  A
C628        C629   1.411       .  A
C629        C631   1.410       .  A
C629        C630   1.413       .  A
C630        H637   1.083       .  S
C631        C632   1.409       .  A
C631        H638   1.083       .  S
C632        C633   1.406       .  A
C632        H639   1.083       .  S
C633        C634   1.407       .  A
C634        H640   1.084       .  S
C641        C642   1.408       .  A
C641        C646   1.408       .  A
C642        C643   1.391       .  A
C642        H651   1.083       .  S
C643        C644   1.398       .  A
C643        H652   1.084       .  S
C644        C650   1.399       .  A
C644        C645   1.414       .  A
C645        C647   1.404       .  A
C645        C646   1.407       .  A
C646        H653   1.084       .  S
C647        C648   1.401       .  A
C647        H654   1.083       .  S
C648        C649   1.405       .  A
C648        H655   1.083       .  S
C649        C650   1.403       .  A
C650        H656   1.085       .  S
C657        C658   1.410       .  A
C657        C662   1.406       .  A
C658        C659   1.390       .  A
C658        H667   1.083       .  S
C659        C660   1.396       .  A
C659        H668   1.084       .  S
C660        C666   1.397       .  A
C660        C661   1.414       .  A
C661        C663   1.403       .  A
C661        C662   1.406       .  A
C662        H669   1.084       .  S
C663        C664   1.400       .  A
C663        H670   1.084       .  S
C664        C665   1.405       .  A
C664        H671   1.083       .  S
C665        C666   1.402       .  A
C666        H672   1.085       .  S
C673        C674   1.405       .  A
C673        C678   1.408       .  A
C674        C675   1.407       .  A
C674        H683   1.083       .  S
C675        C676   1.409       .  A
C675        H684   1.083       .  S
C676        C682   1.411       .  A
C676        C677   1.412       .  A
C677        C679   1.400       .  A
C677        C678   1.396       .  A
C678        H685   1.085       .  S
C679        C680   1.391       .  A
C679        H686   1.084       .  S
C680        C681   1.403       .  A
C680        H687   1.083       .  S
C681        C682   1.411       .  A
C682        H688   1.084       .  S
C689        C690   1.407       .  A
C689        C694   1.412       .  A
C690        C691   1.391       .  A
C690        H699   1.083       .  S
C691        C692   1.399       .  A
C691        H700   1.083       .  S
C692        C698   1.399       .  A
C692        C693   1.412       .  A
C693        C695   1.407       .  A
C693        C694   1.412       .  A
C694        H701   1.083       .  S
C695        C696   1.406       .  A
C695        H702   1.083       .  S
C696        C697   1.407       .  A
C696        H703   1.083       .  S
C697        C698   1.408       .  A
C698        H704   1.084       .  S
C705        C706   1.403       .  A
C705        C710   1.406       .  A
C706        C707   1.401       .  A
C706        H715   1.083       .  S
C707        C708   1.406       .  A
C707        H716   1.084       .  S
C708        C714   1.406       .  A
C708        C709   1.414       .  A
C709        C711   1.403       .  A
C709        C710   1.401       .  A
C710        H717   1.085       .  S
C711        C712   1.396       .  A
C711        H718   1.084       .  S
C712        C713   1.401       .  A
C712        H719   1.084       .  S
C713        C714   1.405       .  A
C714        H720   1.085       .  S
C721        C722   1.404       .  A
C721        C726   1.405       .  A
C722        C723   1.398       .  A
C722        H731   1.083       .  S
C723        C724   1.403       .  A
C723        H732   1.083       .  S
C724        C730   1.403       .  A
C724        C725   1.415       .  A
C725        C727   1.403       .  A
C725        C726   1.402       .  A
C726        H733   1.085       .  S
C727        C728   1.396       .  A
C727        H734   1.083       .  S
C728        C729   1.401       .  A
C728        H735   1.084       .  S
C729        C730   1.403       .  A
C730        H736   1.085       .  S
C737        C738   1.407       .  A
C737        C742   1.409       .  A
C738        C739   1.407       .  A
C738        H747   1.083       .  S
C739        C740   1.407       .  A
C739        H748   1.083       .  S
C740        C746   1.415       .  A
C740        C741   1.413       .  A
C741        C743   1.399       .  A
C741        C742   1.402       .  A
C742        H749   1.084       .  S
C743        C744   1.392       .  A
C743        H750   1.084       .  S
C744        C745   1.408       .  A
C744        H751   1.083       .  S
C745        C746   1.412       .  A
C746        H752   1.084       .  S
C753        C754   1.403       .  A
C753        C758   1.405       .  A
C754        C755   1.401       .  A
C754        H763   1.083       .  S
C755        C756   1.405       .  A
C755        H764   1.083       .  S
C756        C762   1.406       .  A
C756        C757   1.414       .  A
C757        C759   1.402       .  A
C757        C758   1.401       .  A
C758        H765   1.085       .  S
C759        C760   1.396       .  A
C759        H766   1.084       .  S
C760        C761   1.401       .  A
C760        H767   1.084       .  S
C761        C762   1.405       .  A
C762        H768   1.084       .  S
C769        C770   1.405       .  A
C769        C774   1.409       .  A
C770        C771   1.408       .  A
C770        H779   1.083       .  S
C771        C772   1.408       .  A
C771        H780   1.083       .  S
C772        C778   1.415       .  A
C772        C773   1.413       .  A
C773        C775   1.400       .  A
C773        C774   1.403       .  A
C774        H781   1.085       .  S
C775        C776   1.394       .  A
C775        H782   1.084       .  S
C776        C777   1.408       .  A
C776        H783   1.083       .  S
C777        C778   1.412       .  A
C778        H784   1.084       .  S
C785        C786   1.409       .  A
C785        C790   1.402       .  A
C786        C787   1.406       .  A
C786        H795   1.083       .  S
C787        C788   1.406       .  A
C787        H796   1.084       .  S
C788        C794   1.414       .  A
C788        C789   1.414       .  A
C789        C791   1.393       .  A
C789        C790   1.395       .  A
C790        H797   1.085       .  S
C791        C792   1.385       .  A
C791        H798   1.084       .  S
C792        C793   1.409       .  A
C792        H799   1.083       .  S
C793        C794   1.411       .  A
C794        H800   1.084       .  S
C801        C802   1.403       .  A
C801        C806   1.403       .  A
C802        C803   1.399       .  A
C802        H811   1.083       .  S
C803        C804   1.404       .  A
C803        H812   1.084       .  S
C804        C810   1.401       .  A
C804        C805   1.414       .  A
C805        C807   1.401       .  A
C805        C806   1.397       .  A
C806        H813   1.085       .  S
C807        C808   1.393       .  A
C807        H814   1.084       .  S
C808        C809   1.402       .  A
C808        H815   1.084       .  S
C809        C810   1.404       .  A
C810        H816   1.085       .  S
C817        C818   1.406       .  A
C817        C822   1.407       .  A
C818        C819   1.404       .  A
C818        H827   1.083       .  S
C819        C820   1.406       .  A
C819        H828   1.084       .  S
C820        C826   1.409       .  A
C820        C821   1.412       .  A
C821        C823   1.398       .  A
C821        C822   1.397       .  A
C822        H829   1.085       .  S
C823        C824   1.391       .  A
C823        H830   1.084       .  S
C824        C825   1.406       .  A
C824        H831   1.083       .  S
C825        C826   1.411       .  A
C826        H832   1.084       .  S
C833        C834   1.404       .  A
C833        C838   1.409       .  A
C834        C835   1.394       .  A
C834        H843   1.083       .  S
C835        C836   1.401       .  A
C835        H844   1.084       .  S
C836        C842   1.401       .  A
C836        C837   1.414       .  A
C837        C839   1.406       .  A
C837        C838   1.409       .  A
C838        H845   1.084       .  S
C839        C840   1.404       .  A
C839        H846   1.083       .  S
C840        C841   1.405       .  A
C840        H847   1.083       .  S
C841        C842   1.407       .  A
C842        H848   1.085       .  S
C849        C850   1.404       .  A
C849        C854   1.406       .  A
C850        C851   1.403       .  A
C850        H859   1.083       .  S
C851        C852   1.406       .  A
C851        H860   1.083       .  S
C852        C858   1.408       .  A
C852        C853   1.414       .  A
C853        C855   1.401       .  A
C853        C854   1.398       .  A
C854        H861   1.085       .  S
C855        C856   1.393       .  A
C855        H862   1.084       .  S
C856        C857   1.404       .  A
C856        H863   1.084       .  S
C857        C858   1.406       .  A
C858        H864   1.084       .  S
C865        C866   1.407       .  A
C865        C870   1.412       .  A
C866        C867   1.387       .  A
C866        H875   1.083       .  S
C867        C868   1.396       .  A
C867        H876   1.085       .  S
C868        C874   1.390       .  A
C868        C869   1.412       .  A
C869        C871   1.409       .  A
C869        C870   1.408       .  A
C870        H877   1.084       .  S
C871        C872   1.406       .  A
C871        H878   1.084       .  S
C872        C873   1.404       .  A
C872        H879   1.083       .  S
C873        C874   1.403       .  A
C874        H880   1.086       .  S
C881        C882   1.403       .  A
C881        C886   1.406       .  A
C882        C883   1.393       .  A
C882        H891   1.084       .  S
C883        C884   1.400       .  A
C883        H892   1.083       .  S
C884        C890   1.399       .  A
C884        C885   1.414       .  A
C885        C887   1.405       .  A
C885        C886   1.407       .  A
C886        H893   1.084       .  S
C887        C888   1.402       .  A
C887        H894   1.083       .  S
C888        C889   1.405       .  A
C888        H895   1.083       .  S
C889        C890   1.405       .  A
C890        H896   1.084       .  S
C897        C898   1.404       .  A
C897        C902   1.404       .  A
C898        C899   1.408       .  A
C898        H907   1.083       .  S
C899        C900   1.409       .  A
C899        H908   1.083       .  S
C900        C906   1.411       .  A
C900        C901   1.413       .  A
C901        C903   1.399       .  A
C901        C902   1.395       .  A
C902        H909   1.085       .  S
C903        C904   1.390       .  A
C903        H910   1.084       .  S
C904        C905   1.402       .  A
C904        H911   1.084       .  S
C905        C906   1.410       .  A
C906        H912   1.084       .  S
C913        C914   1.406       .  A
C913        C918   1.413       .  A
C914        C915   1.396       .  A
C914        H923   1.083       .  S
C915        C916   1.401       .  A
C915        H924   1.083       .  S
C916        C922   1.403       .  A
C916        C917   1.412       .  A
C917        C919   1.406       .  A
C917        C918   1.410       .  A
C918        H925   1.084       .  S
C919        C920   1.404       .  A
C919        H926   1.083       .  S
C920        C921   1.406       .  A
C920        H927   1.083       .  S
C921        C922   1.409       .  A
C922        H928   1.084       .  S
C929        C930   1.407       .  A
C929        C934   1.406       .  A
C930        C931   1.400       .  A
C930        H939   1.083       .  S
C931        C932   1.403       .  A
C931        H940   1.084       .  S
C932        C938   1.407       .  A
C932        C933   1.415       .  A
C933        C935   1.402       .  A
C933        C934   1.404       .  A
C934        H941   1.084       .  S
C935        C936   1.397       .  A
C935        H942   1.084       .  S
C936        C937   1.404       .  A
C936        H943   1.083       .  S
C937        C938   1.406       .  A
C938        H944   1.085       .  S
C945        C946   1.404       .  A
C945        C950   1.406       .  A
C946        C947   1.396       .  A
C946        H955   1.083       .  S
C947        C948   1.402       .  A
C947        H956   1.084       .  S
C948        C954   1.400       .  A
C948        C949   1.413       .  A
C949        C951   1.402       .  A
C949        C950   1.399       .  A
C950        H957   1.084       .  S
C951        C952   1.396       .  A
C951        H958   1.084       .  S
C952        C953   1.404       .  A
C952        H959   1.083       .  S
C953        C954   1.406       .  A
C954        H960   1.085       .  S
C961        C962   1.406       .  A
C961        C966   1.408       .  A
C962        C963   1.399       .  A
C962        H971   1.083       .  S
C963        C964   1.403       .  A
C963        H972   1.084       .  S
C964        C970   1.404       .  A
C964        C965   1.412       .  A
C965        C967   1.402       .  A
C965        C966   1.401       .  A
C966        H973   1.084       .  S
C967        C968   1.396       .  A
C967        H974   1.084       .  S
C968        C969   1.405       .  A
C968        H975   1.083       .  S
C969        C970   1.409       .  A
C970        H976   1.084       .  S
C977        C978   1.403       .  A
C977        C982   1.404       .  A
C978        C979   1.402       .  A
C978        H987   1.083       .  S
C979        C980   1.406       .  A
C979        H988   1.084       .  S
C980        C986   1.406       .  A
C980        C981   1.414       .  A
C981        C983   1.402       .  A
C981        C982   1.397       .  A
C982        H989   1.085       .  S
C983        C984   1.394       .  A
C983        H990   1.084       .  S
C984        C985   1.400       .  A
C984        H991   1.084       .  S
C985        C986   1.405       .  A
C986        H992   1.085       .  S
C993        C994   1.410       .  A
C993        C998   1.403       .  A
C994        C995   1.395       .  A
C994       H1003   1.083       .  S
C995        C996   1.399       .  A
C995       H1004   1.084       .  S
C996       C1002   1.406       .  A
C996        C997   1.416       .  A
C997        C999   1.398       .  A
C997        C998   1.405       .  A
C998       H1005   1.084       .  S
C999       C1000   1.394       .  A
C999       H1006   1.083       .  S
C1000      C1001   1.409       .  A
C1000      H1007   1.083       .  S
C1001      C1002   1.404       .  A
C1002      H1008   1.084       .  S
C1009      C1010   1.406       .  A
C1009      C1014   1.410       .  A
C1010      C1011   1.402       .  A
C1010      H1019   1.083       .  S
C1011      C1012   1.405       .  A
C1011      H1020   1.084       .  S
C1012      C1018   1.409       .  A
C1012      C1013   1.412       .  A
C1013      C1015   1.402       .  A
C1013      C1014   1.405       .  A
C1014      H1021   1.085       .  S
C1015      C1016   1.398       .  A
C1015      H1022   1.084       .  S
C1016      C1017   1.407       .  A
C1016      H1023   1.083       .  S
C1017      C1018   1.412       .  A
C1018      H1024   1.084       .  S
C1025      C1026   1.399       .  A
C1025      C1030   1.402       .  A
C1026      C1027   1.394       .  A
C1026      H1035   1.084       .  S
C1027      C1028   1.402       .  A
C1027      H1036   1.083       .  S
C1028      C1034   1.396       .  A
C1028      C1029   1.414       .  A
C1029      C1031   1.404       .  A
C1029      C1030   1.400       .  A
C1030      H1037   1.085       .  S
C1031      C1032   1.398       .  A
C1031      H1038   1.083       .  S
C1032      C1033   1.402       .  A
C1032      H1039   1.083       .  S
C1033      C1034   1.402       .  A
C1034      H1040   1.085       .  S
C1041      C1042   1.407       .  A
C1041      C1046   1.409       .  A
C1042      C1043   1.398       .  A
C1042      H1051   1.083       .  S
C1043      C1044   1.402       .  A
C1043      H1052   1.084       .  S
C1044      C1050   1.404       .  A
C1044      C1045   1.413       .  A
C1045      C1047   1.403       .  A
C1045      C1046   1.405       .  A
C1046      H1053   1.084       .  S
C1047      C1048   1.398       .  A
C1047      H1054   1.084       .  S
C1048      C1049   1.405       .  A
C1048      H1055   1.083       .  S
C1049      C1050   1.406       .  A
C1050      H1056   1.084       .  S
C1057      C1058   1.403       .  A
C1057      C1062   1.409       .  A
C1058      C1059   1.394       .  A
C1058      H1067   1.083       .  S
C1059      C1060   1.402       .  A
C1059      H1068   1.084       .  S
C1060      C1066   1.395       .  A
C1060      C1061   1.410       .  A
C1061      C1063   1.405       .  A
C1061      C1062   1.402       .  A
C1062      H1069   1.084       .  S
C1063      C1064   1.401       .  A
C1063      H1070   1.084       .  S
C1064      C1065   1.405       .  A
C1064      H1071   1.083       .  S
C1065      C1066   1.409       .  A
C1066      H1072   1.084       .  S
C1073      C1074   1.403       .  A
C1073      C1078   1.403       .  A
C1074      C1075   1.403       .  A
C1074      H1083   1.083       .  S
C1075      C1076   1.407       .  A
C1075      H1084   1.083       .  S
C1076      C1082   1.405       .  A
C1076      C1077   1.413       .  A
C1077      C1079   1.400       .  A
C1077      C1078   1.393       .  A
C1078      H1085   1.085       .  S
C1079      C1080   1.390       .  A
C1079      H1086   1.083       .  S
C1080      C1081   1.402       .  A
C1080      H1087   1.084       .  S
C1081      C1082   1.406       .  A
C1082      H1088   1.084       .  S
C1089      C1090   1.408       .  A
C1089      C1094   1.403       .  A
C1090      C1091   1.395       .  A
C1090      H1099   1.083       .  S
C1091      C1092   1.399       .  A
C1091      H1100   1.084       .  S
C1092      C1098   1.405       .  A
C1092      C1093   1.417       .  A
C1093      C1095   1.400       .  A
C1093      C1094   1.405       .  A
C1094      H1101   1.084       .  S
C1095      C1096   1.395       .  A
C1095      H1102   1.083       .  S
C1096      C1097   1.405       .  A
C1096      H1103   1.084       .  S
C1097      C1098   1.401       .  A
C1098      H1104   1.084       .  S
C1105      C1106   1.405       .  A
C1105      C1110   1.408       .  A
C1106      C1107   1.399       .  A
C1106      H1115   1.083       .  S
C1107      C1108   1.403       .  A
C1107      H1116   1.084       .  S
C1108      C1114   1.403       .  A
C1108      C1109   1.412       .  A
C1109      C1111   1.402       .  A
C1109      C1110   1.401       .  A
C1110      H1117   1.085       .  S
C1111      C1112   1.396       .  A
C1111      H1118   1.084       .  S
C1112      C1113   1.406       .  A
C1112      H1119   1.083       .  S
C1113      C1114   1.408       .  A
C1114      H1120   1.084       .  S
C1121      C1122   1.403       .  A
C1121      C1126   1.414       .  A
C1122      C1123   1.390       .  A
C1122      H1131   1.084       .  S
C1123      C1124   1.399       .  A
C1123      H1132   1.083       .  S
C1124      C1130   1.396       .  A
C1124      C1125   1.411       .  A
C1125      C1127   1.410       .  A
C1125      C1126   1.414       .  A
C1126      H1133   1.083       .  S
C1127      C1128   1.410       .  A
C1127      H1134   1.083       .  S
C1128      C1129   1.406       .  A
C1128      H1135   1.083       .  S
C1129      C1130   1.409       .  A
C1130      H1136   1.084       .  S
C1137      C1138   1.404       .  A
C1137      C1142   1.406       .  A
C1138      C1139   1.392       .  A
C1138      H1147   1.083       .  S
C1139      C1140   1.400       .  A
C1139      H1148   1.085       .  S
C1140      C1146   1.399       .  A
C1140      C1141   1.414       .  A
C1141      C1143   1.405       .  A
C1141      C1142   1.408       .  A
C1142      H1149   1.085       .  S
C1143      C1144   1.403       .  A
C1143      H1150   1.084       .  S
C1144      C1145   1.405       .  A
C1144      H1151   1.082       .  S
C1145      C1146   1.405       .  A
C1146      H1152   1.086       .  S
C1153      C1154   1.411       .  A
C1153      C1158   1.407       .  A
C1154      C1155   1.395       .  A
C1154      H1163   1.083       .  S
C1155      C1156   1.398       .  A
C1155      H1164   1.083       .  S
C1156      C1162   1.408       .  A
C1156      C1157   1.416       .  A
C1157      C1159   1.401       .  A
C1157      C1158   1.411       .  A
C1158      H1165   1.084       .  S
C1159      C1160   1.398       .  A
C1159      H1166   1.083       .  S
C1160      C1161   1.408       .  A
C1160      H1167   1.084       .  S
C1161      C1162   1.404       .  A
C1162      H1168   1.084       .  S
C1169      C1170   1.405       .  A
C1169      C1174   1.408       .  A
C1170      C1171   1.398       .  A
C1170      H1179   1.083       .  S
C1171      C1172   1.403       .  A
C1171      H1180   1.083       .  S
C1172      C1178   1.405       .  A
C1172      C1173   1.413       .  A
C1173      C1175   1.402       .  A
C1173      C1174   1.406       .  A
C1174      H1181   1.084       .  S
C1175      C1176   1.399       .  A
C1175      H1182   1.084       .  S
C1176      C1177   1.408       .  A
C1176      H1183   1.083       .  S
C1177      C1178   1.408       .  A
C1178      H1184   1.084       .  S
C1185      C1186   1.405       .  A
C1185      C1190   1.407       .  A
C1186      C1187   1.404       .  A
C1186      H1195   1.083       .  S
C1187      C1188   1.406       .  A
C1187      H1196   1.084       .  S
C1188      C1194   1.410       .  A
C1188      C1189   1.413       .  A
C1189      C1191   1.400       .  A
C1189      C1190   1.400       .  A
C1190      H1197   1.085       .  S
C1191      C1192   1.393       .  A
C1191      H1198   1.084       .  S
C1192      C1193   1.405       .  A
C1192      H1199   1.084       .  S
C1193      C1194   1.409       .  A
C1194      H1200   1.084       .  S
C1201      C1202   1.406       .  A
C1201      C1206   1.409       .  A
C1202      C1203   1.399       .  A
C1202      H1211   1.083       .  S
C1203      C1204   1.403       .  A
C1203      H1212   1.084       .  S
C1204      C1210   1.406       .  A
C1204      C1205   1.413       .  A
C1205      C1207   1.404       .  A
C1205      C1206   1.408       .  A
C1206      H1213   1.085       .  S
C1207      C1208   1.401       .  A
C1207      H1214   1.084       .  S
C1208      C1209   1.406       .  A
C1208      H1215   1.083       .  S
C1209      C1210   1.410       .  A
C1210      H1216   1.085       .  S
C1217      C1218   1.407       .  A
C1217      C1222   1.406       .  A
C1218      C1219   1.398       .  A
C1218      H1227   1.083       .  S
C1219      C1220   1.401       .  A
C1219      H1228   1.084       .  S
C1220      C1226   1.405       .  A
C1220      C1221   1.414       .  A
C1221      C1223   1.401       .  A
C1221      C1222   1.405       .  A
C1222      H1229   1.085       .  S
C1223      C1224   1.397       .  A
C1223      H1230   1.084       .  S
C1224      C1225   1.408       .  A
C1224      H1231   1.083       .  S
C1225      C1226   1.407       .  A
C1226      H1232   1.085       .  S
C1233      C1234   1.403       .  A
C1233      C1238   1.411       .  A
C1234      C1235   1.392       .  A
C1234      H1243   1.083       .  S
C1235      C1236   1.400       .  A
C1235      H1244   1.084       .  S
C1236      C1242   1.395       .  A
C1236      C1237   1.412       .  A
C1237      C1239   1.409       .  A
C1237      C1238   1.409       .  A
C1238      H1245   1.084       .  S
C1239      C1240   1.406       .  A
C1239      H1246   1.083       .  S
C1240      C1241   1.404       .  A
C1240      H1247   1.083       .  S
C1241      C1242   1.406       .  A
C1242      H1248   1.085       .  S
C1249      C1250   1.406       .  A
C1249      C1254   1.411       .  A
C1250      C1251   1.399       .  A
C1250      H1259   1.083       .  S
C1251      C1252   1.403       .  A
C1251      H1260   1.084       .  S
C1252      C1258   1.404       .  A
C1252      C1253   1.412       .  A
C1253      C1255   1.404       .  A
C1253      C1254   1.405       .  A
C1254      H1261   1.085       .  S
C1255      C1256   1.399       .  A
C1255      H1262   1.084       .  S
C1256      C1257   1.405       .  A
C1256      H1263   1.083       .  S
C1257      C1258   1.409       .  A
C1258      H1264   1.085       .  S
C1265      C1266   1.404       .  A
C1265      C1270   1.407       .  A
C1266      C1267   1.399       .  A
C1266      H1275   1.083       .  S
C1267      C1268   1.404       .  A
C1267      H1276   1.084       .  S
C1268      C1274   1.403       .  A
C1268      C1269   1.412       .  A
C1269      C1271   1.403       .  A
C1269      C1270   1.402       .  A
C1270      H1277   1.085       .  S
C1271      C1272   1.397       .  A
C1271      H1278   1.084       .  S
C1272      C1273   1.405       .  A
C1272      H1279   1.083       .  S
C1273      C1274   1.409       .  A
C1274      H1280   1.084       .  S
C1281      C1282   1.405       .  A
C1281      C1286   1.410       .  A
C1282      C1283   1.393       .  A
C1282      H1291   1.083       .  S
C1283      C1284   1.400       .  A
C1283      H1292   1.085       .  S
C1284      C1290   1.399       .  A
C1284      C1285   1.414       .  A
C1285      C1287   1.408       .  A
C1285      C1286   1.412       .  A
C1286      H1293   1.085       .  S
C1287      C1288   1.406       .  A
C1287      H1294   1.084       .  S
C1288      C1289   1.404       .  A
C1288      H1295   1.083       .  S
C1289      C1290   1.403       .  A
C1290      H1296   1.085       .  S
C1297      C1298   1.404       .  A
C1297      C1302   1.404       .  A
C1298      C1299   1.405       .  A
C1298      H1307   1.083       .  S
C1299      C1300   1.408       .  A
C1299      H1308   1.084       .  S
C1300      C1306   1.409       .  A
C1300      C1301   1.413       .  A
C1301      C1303   1.399       .  A
C1301      C1302   1.397       .  A
C1302      H1309   1.085       .  S
C1303      C1304   1.392       .  A
C1303      H1310   1.085       .  S
C1304      C1305   1.405       .  A
C1304      H1311   1.083       .  S
C1305      C1306   1.410       .  A
C1306      H1312   1.085       .  S
C1313      C1314   1.404       .  A
C1313      C1318   1.404       .  A
C1314      C1315   1.389       .  A
C1314      H1323   1.083       .  S
C1315      C1316   1.398       .  A
C1315      H1324   1.083       .  S
C1316      C1322   1.394       .  A
C1316      C1317   1.414       .  A
C1317      C1319   1.404       .  A
C1317      C1318   1.405       .  A
C1318      H1325   1.084       .  S
C1319      C1320   1.401       .  A
C1319      H1326   1.083       .  S
C1320      C1321   1.406       .  A
C1320      H1327   1.083       .  S
C1321      C1322   1.405       .  A
C1322      H1328   1.084       .  S
C1329      C1330   1.408       .  A
C1329      C1334   1.404       .  A
C1330      C1331   1.396       .  A
C1330      H1339   1.083       .  S
C1331      C1332   1.400       .  A
C1331      H1340   1.084       .  S
C1332      C1338   1.406       .  A
C1332      C1333   1.416       .  A
C1333      C1335   1.400       .  A
C1333      C1334   1.407       .  A
C1334      H1341   1.084       .  S
C1335      C1336   1.397       .  A
C1335      H1342   1.084       .  S
C1336      C1337   1.410       .  A
C1336      H1343   1.083       .  S
C1337      C1338   1.406       .  A
C1338      H1344   1.084       .  S
C1345      C1346   1.410       .  A
C1345      C1350   1.409       .  A
C1346      C1347   1.398       .  A
C1346      H1355   1.083       .  S
C1347      C1348   1.400       .  A
C1347      H1356   1.083       .  S
C1348      C1354   1.412       .  A
C1348      C1349   1.416       .  A
C1349      C1351   1.401       .  A
C1349      C1350   1.414       .  A
C1350      H1357   1.084       .  S
C1351      C1352   1.400       .  A
C1351      H1358   1.083       .  S
C1352      C1353   1.411       .  A
C1352      H1359   1.083       .  S
C1353      C1354   1.407       .  A
C1354      H1360   1.083       .  S
C1361      C1362   1.404       .  A
C1361      C1366   1.405       .  A
C1362      C1363   1.404       .  A
C1362      H1371   1.083       .  S
C1363      C1364   1.407       .  A
C1363      H1372   1.084       .  S
C1364      C1370   1.408       .  A
C1364      C1365   1.412       .  A
C1365      C1367   1.399       .  A
C1365      C1366   1.395       .  A
C1366      H1373   1.085       .  S
C1367      C1368   1.391       .  A
C1367      H1374   1.084       .  S
C1368      C1369   1.405       .  A
C1368      H1375   1.084       .  S
C1369      C1370   1.411       .  A
C1370      H1376   1.084       .  S
C1377      C1378   1.403       .  A
C1377      C1382   1.406       .  A
C1378      C1379   1.398       .  A
C1378      H1387   1.083       .  S
C1379      C1380   1.404       .  A
C1379      H1388   1.084       .  S
C1380      C1386   1.402       .  A
C1380      C1381   1.414       .  A
C1381      C1383   1.405       .  A
C1381      C1382   1.402       .  A
C1382      H1389   1.084       .  S
C1383      C1384   1.398       .  A
C1383      H1390   1.083       .  S
C1384      C1385   1.400       .  A
C1384      H1391   1.084       .  S
C1385      C1386   1.403       .  A
C1386      H1392   1.085       .  S
C1393      C1394   1.403       .  A
C1393      C1398   1.408       .  A
C1394      C1395   1.403       .  A
C1394      H1403   1.087       .  S
C1395      C1396   1.407       .  A
C1395      H1404   1.076       .  S
C1396      C1402   1.409       .  A
C1396      C1397   1.412       .  A
C1397      C1399   1.404       .  A
C1397      C1398   1.403       .  A
C1398      H1405   1.078       .  S
C1399      C1400   1.396       .  A
C1399      H1406   1.077       .  S
C1400      C1401   1.401       .  A
C1400      H1407   1.087       .  S
C1401      C1402   1.408       .  A
C1402      H1408   1.078       .  S
C1409      C1410   1.406       .  A
C1409      C1414   1.410       .  A
C1410      C1411   1.400       .  A
C1410      H1419   1.083       .  S
C1411      C1412   1.404       .  A
C1411      H1420   1.084       .  S
C1412      C1418   1.406       .  A
C1412      C1413   1.412       .  A
C1413      C1415   1.403       .  A
C1413      C1414   1.406       .  A
C1414      H1421   1.085       .  S
C1415      C1416   1.399       .  A
C1415      H1422   1.084       .  S
C1416      C1417   1.406       .  A
C1416      H1423   1.083       .  S
C1417      C1418   1.410       .  A
C1418      H1424   1.085       .  S
C1425      C1426   1.402       .  A
C1425      C1430   1.405       .  A
C1426      C1427   1.400       .  A
C1426      H1435   1.083       .  S
C1427      C1428   1.406       .  A
C1427      H1436   1.084       .  S
C1428      C1434   1.405       .  A
C1428      C1429   1.413       .  A
C1429      C1431   1.402       .  A
C1429      C1430   1.402       .  A
C1430      H1437   1.085       .  S
C1431      C1432   1.398       .  A
C1431      H1438   1.084       .  S
C1432      C1433   1.406       .  A
C1432      H1439   1.083       .  S
C1433      C1434   1.411       .  A
C1434      H1440   1.084       .  S
C1441      C1442   1.407       .  A
C1441      C1446   1.411       .  A
C1442      C1443   1.389       .  A
C1442      H1451   1.083       .  S
C1443      C1444   1.396       .  A
C1443      H1452   1.084       .  S
C1444      C1450   1.396       .  A
C1444      C1445   1.413       .  A
C1445      C1447   1.407       .  A
C1445      C1446   1.411       .  A
C1446      H1453   1.084       .  S
C1447      C1448   1.405       .  A
C1447      H1454   1.083       .  S
C1448      C1449   1.406       .  A
C1448      H1455   1.083       .  S
C1449      C1450   1.401       .  A
C1450      H1456   1.085       .  S
C1457      C1458   1.404       .  A
C1457      C1462   1.408       .  A
C1458      C1459   1.395       .  A
C1458      H1467   1.083       .  S
C1459      C1460   1.400       .  A
C1459      H1468   1.083       .  S
C1460      C1466   1.405       .  A
C1460      C1461   1.415       .  A
C1461      C1463   1.405       .  A
C1461      C1462   1.413       .  A
C1462      H1469   1.084       .  S
C1463      C1464   1.403       .  A
C1463      H1470   1.083       .  S
C1464      C1465   1.408       .  A
C1464      H1471   1.083       .  S
C1465      C1466   1.407       .  A
C1466      H1472   1.084       .  S
C1473      C1474   1.404       .  A
C1473      C1478   1.407       .  A
C1474      C1475   1.406       .  A
C1474      H1483   1.083       .  S
C1475      C1476   1.408       .  A
C1475      H1484   1.083       .  S
C1476      C1482   1.408       .  A
C1476      C1477   1.412       .  A
C1477      C1479   1.400       .  A
C1477      C1478   1.394       .  A
C1478      H1485   1.085       .  S
C1479      C1480   1.391       .  A
C1479      H1486   1.084       .  S
C1480      C1481   1.403       .  A
C1480      H1487   1.083       .  S
C1481      C1482   1.410       .  A
C1482      H1488   1.084       .  S
C1489      C1490   1.406       .  A
C1489      C1494   1.410       .  A
C1490      C1491   1.399       .  A
C1490      H1499   1.083       .  S
C1491      C1492   1.403       .  A
C1491      H1500   1.083       .  S
C1492      C1498   1.406       .  A
C1492      C1493   1.412       .  A
C1493      C1495   1.402       .  A
C1493      C1494   1.405       .  A
C1494      H1501   1.084       .  S
C1495      C1496   1.398       .  A
C1495      H1502   1.084       .  S
C1496      C1497   1.407       .  A
C1496      H1503   1.083       .  S
C1497      C1498   1.410       .  A
C1498      H1504   1.084       .  S
C1505      C1506   1.408       .  A
C1505      C1510   1.404       .  A
C1506      C1507   1.398       .  A
C1506      H1515   1.083       .  S
C1507      C1508   1.401       .  A
C1507      H1516   1.084       .  S
C1508      C1514   1.407       .  A
C1508      C1509   1.416       .  A
C1509      C1511   1.399       .  A
C1509      C1510   1.404       .  A
C1510      H1517   1.085       .  S
C1511      C1512   1.394       .  A
C1511      H1518   1.084       .  S
C1512      C1513   1.407       .  A
C1512      H1519   1.083       .  S
C1513      C1514   1.404       .  A
C1514      H1520   1.085       .  S
C1521      C1522   1.404       .  A
C1521      C1526   1.402       .  A
C1522      C1523   1.403       .  A
C1522      H1531   1.083       .  S
C1523      C1524   1.406       .  A
C1523      H1532   1.084       .  S
C1524      C1530   1.406       .  A
C1524      C1525   1.413       .  A
C1525      C1527   1.398       .  A
C1525      C1526   1.394       .  A
C1526      H1533   1.086       .  S
C1527      C1528   1.390       .  A
C1527      H1534   1.085       .  S
C1528      C1529   1.405       .  A
C1528      H1535   1.083       .  S
C1529      C1530   1.408       .  A
C1530      H1536   1.085       .  S
C1537      C1538   1.404       .  A
C1537      C1542   1.403       .  A
C1538      C1539   1.406       .  A
C1538      H1547   1.083       .  S
C1539      C1540   1.409       .  A
C1539      H1548   1.083       .  S
C1540      C1546   1.410       .  A
C1540      C1541   1.412       .  A
C1541      C1543   1.396       .  A
C1541      C1542   1.393       .  A
C1542      H1549   1.086       .  S
C1543      C1544   1.388       .  A
C1543      H1550   1.084       .  S
C1544      C1545   1.407       .  A
C1544      H1551   1.083       .  S
C1545      C1546   1.412       .  A
C1546      H1552   1.084       .  S
C1553      C1554   1.404       .  A
C1553      C1558   1.405       .  A
C1554      C1555   1.404       .  A
C1554      H1563   1.083       .  S
C1555      C1556   1.407       .  A
C1555      H1564   1.083       .  S
C1556      C1562   1.408       .  A
C1556      C1557   1.413       .  A
C1557      C1559   1.399       .  A
C1557      C1558   1.395       .  A
C1558      H1565   1.085       .  S
C1559      C1560   1.390       .  A
C1559      H1566   1.084       .  S
C1560      C1561   1.403       .  A
C1560      H1567   1.084       .  S
C1561      C1562   1.409       .  A
C1562      H1568   1.084       .  S
C1569      C1570   1.404       .  A
C1569      C1574   1.409       .  A
C1570      C1571   1.403       .  A
C1570      H1579   1.083       .  S
C1571      C1572   1.406       .  A
C1571      H1580   1.083       .  S
C1572      C1578   1.409       .  A
C1572      C1573   1.413       .  A
C1573      C1575   1.403       .  A
C1573      C1574   1.405       .  A
C1574      H1581   1.084       .  S
C1575      C1576   1.398       .  A
C1575      H1582   1.084       .  S
C1576      C1577   1.404       .  A
C1576      H1583   1.084       .  S
C1577      C1578   1.409       .  A
C1578      H1584   1.084       .  S
C1585      C1586   1.407       .  A
C1585      C1590   1.411       .  A
C1586      C1587   1.396       .  A
C1586      H1595   1.083       .  S
C1587      C1588   1.401       .  A
C1587      H1596   1.084       .  S
C1588      C1594   1.402       .  A
C1588      C1589   1.413       .  A
C1589      C1591   1.406       .  A
C1589      C1590   1.407       .  A
C1590      H1597   1.084       .  S
C1591      C1592   1.402       .  A
C1591      H1598   1.083       .  S
C1592      C1593   1.404       .  A
C1592      H1599   1.083       .  S
C1593      C1594   1.406       .  A
C1594      H1600   1.085       .  S
C1601      C1602   1.406       .  A
C1601      C1606   1.411       .  A
C1602      C1603   1.398       .  A
C1602      H1611   1.083       .  S
C1603      C1604   1.402       .  A
C1603      H1612   1.084       .  S
C1604      C1610   1.405       .  A
C1604      C1605   1.412       .  A
C1605      C1607   1.404       .  A
C1605      C1606   1.407       .  A
C1606      H1613   1.084       .  S
C1607      C1608   1.400       .  A
C1607      H1614   1.084       .  S
C1608      C1609   1.406       .  A
C1608      H1615   1.083       .  S
C1609      C1610   1.409       .  A
C1610      H1616   1.084       .  S
C1617      C1618   1.402       .  A
C1617      C1622   1.412       .  A
C1618      C1619   1.395       .  A
C1618      H1627   1.083       .  S
C1619      C1620   1.401       .  A
C1619      H1628   1.084       .  S
C1620      C1626   1.401       .  A
C1620      C1621   1.413       .  A
C1621      C1623   1.410       .  A
C1621      C1622   1.415       .  A
C1622      H1629   1.084       .  S
C1623      C1624   1.409       .  A
C1623      H1630   1.084       .  S
C1624      C1625   1.405       .  A
C1624      H1631   1.083       .  S
C1625      C1626   1.407       .  A
C1626      H1632   1.085       .  S
C1633      C1634   1.403       .  A
C1633      C1638   1.407       .  A
C1634      C1635   1.397       .  A
C1634      H1643   1.083       .  S
C1635      C1636   1.402       .  A
C1635      H1644   1.084       .  S
C1636      C1642   1.403       .  A
C1636      C1637   1.414       .  A
C1637      C1639   1.405       .  A
C1637      C1638   1.407       .  A
C1638      H1645   1.085       .  S
C1639      C1640   1.401       .  A
C1639      H1646   1.084       .  S
C1640      C1641   1.405       .  A
C1640      H1647   1.083       .  S
C1641      C1642   1.407       .  A
C1642      H1648   1.085       .  S
C1649      C1650   1.402       .  A
C1649      C1654   1.408       .  A
C1650      C1651   1.393       .  A
C1650      H1659   1.084       .  S
C1651      C1652   1.401       .  A
C1651      H1660   1.084       .  S
C1652      C1658   1.395       .  A
C1652      C1653   1.412       .  A
C1653      C1655   1.407       .  A
C1653      C1654   1.405       .  A
C1654      H1661   1.084       .  S
C1655      C1656   1.403       .  A
C1655      H1662   1.084       .  S
C1656      C1657   1.403       .  A
C1656      H1663   1.083       .  S
C1657      C1658   1.405       .  A
C1658      H1664   1.085       .  S
C1665      C1666   1.406       .  A
C1665      C1670   1.412       .  A
C1666      C1667   1.395       .  A
C1666      H1675   1.083       .  S
C1667      C1668   1.401       .  A
C1667      H1676   1.084       .  S
C1668      C1674   1.405       .  A
C1668      C1669   1.413       .  A
C1669      C1671   1.408       .  A
C1669      C1670   1.416       .  A
C1670      H1677   1.084       .  S
C1671      C1672   1.407       .  A
C1671      H1678   1.083       .  S
C1672      C1673   1.407       .  A
C1672      H1679   1.082       .  S
C1673      C1674   1.411       .  A
C1674      H1680   1.084       .  S
