geometry optimzed in LAMMPS
_audit_creation_date              2020-11-30 
_audit_creation_method            'lammps2cif' 
_symmetry_space_group_name_H-M    'P1' 
_symmetry_Int_Tables_number       1 
_symmetry_cell_setting            triclinic 
loop_ 
_symmetry_equiv_pos_as_xyz 
  x,y,z 
_cell_length_a                    31.965679446386638 
_cell_length_b                    33.43048767436009 
_cell_length_c                    28.008998191998565 
_cell_angle_alpha                 89.89114376004828 
_cell_angle_beta                  91.3345614523197 
_cell_angle_gamma                 119.64534397087724 
loop_ 
_atom_site_label 
_atom_site_type_symbol 
_atom_site_fract_x 
_atom_site_fract_y 
_atom_site_fract_z 
_atom_site_charge 
C1          C  0.49513778  0.23249381  0.00336553     0.00460
C2          C  0.99629348  0.27352780  0.49336924     0.00460
C3          C  0.23573838  0.50137502  0.50790377     0.00460
C4          C  0.27517903  0.50009106  0.48925452     0.00460
C5          C  0.22886844  0.23865130  0.49455510     0.00460
C6          C  0.26758265  0.28263676  0.49968378     0.00460
O7          O  0.03309469  0.13423559  0.31896457    -0.80230
O8          O  0.39583776  0.37114011  0.30918202    -0.81790
O9          O  0.40428003  0.01502298  0.35277826    -0.78810
O10         O  0.03946988  0.99643712  0.39393201    -0.77190
O11         O  0.10660606  0.00915226  0.35310337    -0.78980
O12         O  0.36635412  0.01192431  0.28112579    -0.79910
O13         O  0.41199724  0.42646842  0.36602483    -0.81240
O14         O  0.50251236  0.08014334  0.37815863    -0.81530
Eu15       Eu  0.47567995  0.00420969  0.34161202     2.39200
O16         O  0.50390660  0.46102522  0.30453178    -0.89040
O17         O  0.47175747  0.05209279  0.28057312    -0.92640
C18         C  0.01806812  0.12097012  0.36158220     1.02050
C19         C  0.38908167  0.38454036  0.34963265     1.01870
C20         C  0.36993631  0.01533180  0.32722509     1.01810
C21         C  0.08231671  0.99940142  0.39070348     0.99670
H22         H  0.38811233  0.44296854  0.28783450     0.29420
O23         O  0.42089035  0.46096558  0.27762256    -1.01430
H24         H  0.06541432  0.06786432  0.33516433     0.29450
O25         O  0.04835942  0.05083661  0.30686482    -1.03970
O26         O  0.46131740  0.37488575  0.17698165    -0.81190
O27         O  0.10091898  0.13778883  0.18187887    -0.80730
O28         O  0.34871882  0.43278493  0.18557041    -0.79170
O29         O  0.05227839  0.42967209  0.31921681    -0.82510
O30         O  0.14251921  0.08505513  0.31413677    -0.80360
O31         O  0.43622970  0.08598207  0.18097580    -0.79010
O32         O  0.47282760  0.01114166  0.09326642    -0.80530
O33         O  0.09918848  0.00357505  0.14201893    -0.82460
O34         O  0.41324063  0.97434160  0.14184045    -0.79200
O35         O  0.13383736  0.00244525  0.21413635    -0.81870
O36         O  0.37203702  0.37910293  0.19997931    -0.77610
O37         O  0.01210313  0.14132290  0.20316777    -0.77640
O38         O  0.12354789  0.14018987  0.29285759    -0.77280
O39         O  0.47744225  0.37146662  0.29597209    -0.80780
O40         O  0.00086512  0.43146902  0.12139119    -0.80210
O41         O  0.08176466  0.08170948  0.12507662    -0.78530
Eu42       Eu  0.44912679  0.41315547  0.24549238     2.39770
Eu43       Eu  0.04724175  0.10022120  0.24793021     2.39570
Eu44       Eu  0.41815968  0.00912348  0.21771940     2.38400
Eu45       Eu  0.08055819  0.00670208  0.27606375     2.39880
Eu46       Eu  0.02556755  0.00623471  0.15578802     2.39790
O47         O  0.07903092  0.05523749  0.21655523    -0.92950
O48         O  0.44952532  0.46315309  0.18842490    -0.91840
C49         C  0.48010697  0.38879411  0.13579048     1.02220
C50         C  0.10473559  0.12363991  0.14039043     1.00940
C51         C  0.34498551  0.39264918  0.17867862     1.00330
C52         C  0.01622271  0.38768030  0.32278019     1.02340
C53         C  0.14873981  0.12680365  0.31756583     1.01260
C54         C  0.47284468  0.12757479  0.17915882     1.00110
C55         C  0.42893401  0.99711915  0.10437112     1.00170
C56         C  0.13230805  0.00215949  0.16773509     1.02780
H57         H  0.99818882  0.07109918  0.15818115     0.30150
O58         O  0.99625006  0.05326736  0.18589204    -1.05110
H59         H  0.04275754  0.43930498  0.20662039     0.32200
O60         O  0.03016569  0.45858174  0.21742315    -1.07670
C61         C  0.28500626  0.31310489  0.04589052    -0.00260
C62         C  0.25357367  0.31899848  0.07666607    -0.12130
C63         C  0.27081138  0.34566195  0.11989562     0.01980
C64         C  0.31989113  0.36542639  0.13408695    -0.00340
C65         C  0.35062877  0.36108736  0.10271000    -0.12070
C66         C  0.33472003  0.33702802  0.05958906     0.01860
H67         H  0.21573699  0.30341392  0.06671471     0.14840
H68         H  0.38887091  0.37813143  0.11168426     0.14840
C69         C  0.37269975  0.33960707  0.03126311     0.36500
C70         C  0.23796649  0.35240136  0.14860841     0.36400
N71         N  0.40609261  0.34507411  0.01094807    -0.43850
N72         N  0.21166210  0.35822240  0.17138756    -0.43840
C73         C  0.13627426  0.15764289  0.10645886    -0.00260
C74         C  0.18602707  0.18241292  0.11573342    -0.12130
C75         C  0.21727097  0.20958295  0.08010001     0.01980
C76         C  0.19819862  0.21508747  0.03600794    -0.00340
C77         C  0.14860295  0.18840330  0.02706503    -0.12070
C78         C  0.11751261  0.16039344  0.06163445     0.01860
H79         H  0.20057317  0.17725613  0.14908400     0.14840
H80         H  0.13442356  0.18815256  0.99175430     0.14840
C81         C  0.06651597  0.13381150  0.05004771     0.36500
C82         C  0.26733798  0.22273247  0.08562112     0.36400
N83         N  0.02566197  0.11242634  0.04121273    -0.43850
N84         N  0.30720851  0.23188667  0.08874989    -0.43840
C85         C  0.35169067  0.34997789  0.37929293    -0.00260
C86         C  0.35779857  0.31549083  0.40108738    -0.12130
C87         C  0.32788886  0.29020333  0.43822479     0.01980
C88         C  0.29584215  0.30373880  0.45671854    -0.00340
C89         C  0.28657077  0.33455646  0.43106326    -0.12070
C90         C  0.31109838  0.35358098  0.38932830     0.01860
H91         H  0.38602437  0.30893873  0.38980062     0.14840
H92         H  0.25739114  0.34020832  0.44126865     0.14840
C93         C  0.28884943  0.36711906  0.35225023     0.36500
C94         C  0.33286489  0.25301597  0.45875227     0.36400
N95         N  0.26977077  0.37424842  0.32051588    -0.43850
N96         N  0.33690787  0.22325347  0.47511080    -0.43840
C97         C  0.18026947  0.15967584  0.35765325    -0.00260
C98         C  0.19181002  0.14205977  0.39848842    -0.12130
C99         C  0.20702439  0.16702166  0.44238451     0.01980
C100        C  0.21470674  0.21236514  0.44621372    -0.00340
C101        C  0.20440371  0.23053333  0.40509086    -0.12070
C102        C  0.18881925  0.20572947  0.36141876     0.01860
H103        H  0.18592839  0.10743864  0.39670907     0.14840
H104        H  0.20593618  0.26346518  0.40741703     0.14840
C105        C  0.18108844  0.22881396  0.32138523     0.36500
C106        C  0.20930034  0.14410064  0.48515203     0.36400
N107        N  0.17509707  0.24764591  0.28950232    -0.43850
N108        N  0.20642172  0.12753824  0.02153254    -0.43840
C109        C  0.31625075  0.49958019  0.01791618    -0.00260
C110        C  0.32274509  0.01201986  0.06673012    -0.12130
C111        C  0.35751677  0.00984076  0.09538802     0.01980
C112        C  0.39396504  0.00357639  0.07487629    -0.00340
C113        C  0.39094786  0.49440404  0.02561089    -0.12070
C114        C  0.35113329  0.48912592  0.99836400     0.01860
H115        H  0.30104881  0.02300550  0.08423818     0.14840
H116        H  0.41683871  0.48648587  0.00995547     0.14840
C117        C  0.34699188  0.46814330  0.45301882     0.36500
C118        C  0.35124899  0.01189071  0.14585240     0.36400
N119        N  0.34703807  0.44993609  0.41810411    -0.43850
N120        N  0.34190785  0.01333455  0.18523061    -0.43840
C121        C  0.22325054  0.50151560  0.05897000    -0.00260
C122        C  0.19054027  0.46000619  0.08066306    -0.12130
C123        C  0.16536438  0.45995703  0.12137989     0.01980
C124        C  0.17058767  0.00068652  0.13999241    -0.00340
C125        C  0.20665807  0.04209214  0.12138272    -0.12070
C126        C  0.23259286  0.04234699  0.08151018     0.01860
H127        H  0.18223212  0.42765654  0.06388564     0.14840
H128        H  0.21222234  0.07448270  0.13590009     0.14840
C129        C  0.26924797  0.08620357  0.06418366     0.36500
C130        C  0.12994269  0.41659781  0.14082146     0.36400
N131        N  0.29920711  0.12161365  0.05138370    -0.43850
N132        N  0.10157518  0.38210688  0.15697071    -0.43840
C133        C  0.32968830  0.01493463  0.35383687    -0.00260
C134        C  0.28935029  0.47777624  0.35938411    -0.12130
C135        C  0.26597397  0.47069243  0.40310502     0.01980
C136        C  0.28364329  0.50723558  0.43694154    -0.00340
C137        C  0.31310691  0.03967803  0.42910126    -0.12070
C138        C  0.33788259  0.05027238  0.38629792     0.01860
H139        H  0.27936626  0.44919401  0.33548598     0.14840
H140        H  0.32302685  0.06643043  0.45591884     0.14840
C141        C  0.36042437  0.09730152  0.37154708     0.36500
C142        C  0.23241644  0.42393055  0.41589499     0.36400
N143        N  0.37307050  0.13483316  0.36054451    -0.43740
N144        N  0.20616902  0.38607201  0.42565411    -0.43840
C145        C  0.11206240  0.49437893  0.43321437    -0.00260
C146        C  0.14455137  0.03001204  0.45421996    -0.12130
C147        C  0.18885830  0.03316253  0.46857138     0.01980
C148        C  0.19687798  0.50071277  0.47685304    -0.00340
C149        C  0.15981383  0.45914070  0.46022262    -0.12070
C150        C  0.12367726  0.45807222  0.43054288     0.01860
H151        H  0.14145662  0.06069493  0.45297821     0.14840
H152        H  0.16629195  0.43059018  0.46067537     0.14840
C153        C  0.12053408  0.43440233  0.38663914     0.36500
C154        C  0.23333450  0.07408618  0.45806211     0.36400
N155        N  0.12540836  0.41852234  0.35196080    -0.43850
N156        N  0.27104974  0.11284040  0.94636158    -0.43840
C157        C  0.48303496  0.35594651  0.10299891    -0.00260
C158        C  0.52367065  0.37319286  0.07437984    -0.12130
C159        C  0.52919515  0.34469213  0.04243959     0.01980
C160        C  0.49206968  0.29945328  0.03472304    -0.00340
C161        C  0.95241782  0.28204628  0.06358942    -0.12070
C162        C  0.94959296  0.30932141  0.10003552     0.01860
H163        H  0.55234668  0.40860355  0.07841981     0.14840
H164        H  0.92370263  0.24685649  0.05856155     0.14840
C165        C  0.91220152  0.28797830  0.13456676     0.36500
C166        C  0.57693131  0.36175549  0.52119539     0.36400
N167        N  0.88350728  0.27115078  0.16355943    -0.43850
N168        N  0.61291624  0.36929170  0.50505228    -0.43840
C169        C  0.48718561  0.21152665  0.05365738    -0.00260
C170        C  0.44253185  0.17260888  0.06403733    -0.12130
C171        C  0.43479058  0.14954676  0.10832203     0.01980
C172        C  0.47354444  0.16050166  0.14092264    -0.00340
C173        C  0.01705886  0.20204909  0.13085296    -0.12070
C174        C  0.02286978  0.22859256  0.08966396     0.01860
H175        H  0.41290030  0.16143459  0.03829903     0.14840
H176        H  0.04696100  0.21360781  0.15631868     0.14840
C177        C  0.06575160  0.27294079  0.08839736     0.36500
C178        C  0.38619692  0.12064956  0.12320728     0.36400
N179        N  0.10093117  0.30810219  0.08987863    -0.43850
N180        N  0.34759667  0.09989602  0.13740135    -0.43840
C181        C  0.00112768  0.29687950  0.44420032    -0.00260
C182        C  0.47586242  0.32016715  0.43889272    -0.12130
C183        C  0.98602144  0.35437110  0.40446049     0.01980
C184        C  0.01362069  0.35759402  0.36464227    -0.00340
C185        C  0.03605774  0.33033753  0.36578097    -0.12070
C186        C  0.03449219  0.30459112  0.40714865     0.01860
H187        H  0.45065245  0.31576349  0.46592734     0.14840
H188        H  0.05852667  0.33255427  0.33637328     0.14840
C189        C  0.07211180  0.29298803  0.41188756     0.36500
C190        C  0.47486453  0.38915281  0.41698946     0.36400
N191        N  0.10408384  0.28593204  0.41350857    -0.43850
N192        N  0.46744147  0.41707530  0.43227426    -0.43840
C193        C  0.00282188  0.20651632  0.46411867    -0.00260
C194        C  0.47855157  0.19628900  0.42143449    -0.12130
C195        C  0.48824966  0.17380929  0.38468829     0.01980
C196        C  0.01692114  0.15472038  0.39399938    -0.00340
C197        C  0.04431995  0.16695126  0.43633519    -0.12070
C198        C  0.04058027  0.19646710  0.46904622     0.01860
H199        H  0.45187706  0.20692823  0.41562154     0.14840
H200        H  0.07100233  0.15631782  0.44157004     0.14840
C201        C  0.08189821  0.22543470  0.49892126     0.36500
C202        C  0.47054677  0.17310681  0.33661262     0.36400
N203        N  0.11695727  0.25392321  0.01799591    -0.43850
N204        N  0.45755295  0.17303480  0.29766599    -0.43840
C205        C  0.49909442  0.23442074  0.50307990     0.00460
C206        C  0.99573515  0.27364297  0.99266425     0.00460
C207        C  0.23548808  0.50113842  0.00749257     0.00460
C208        C  0.27492461  0.49972019  0.98900125     0.00460
C209        C  0.22827753  0.24024178  0.99446230     0.00460
C210        C  0.26729979  0.28404286  0.99950329     0.00460
O211        O  0.03347078  0.13423245  0.81912560    -0.80230
O212        O  0.39565347  0.37069065  0.80870546    -0.81790
O213        O  0.40680405  0.01953935  0.85133021    -0.78810
O214        O  0.04046933  0.99773649  0.89612129    -0.77190
O215        O  0.10557314  0.00588808  0.85464596    -0.78980
O216        O  0.37229383  0.02169066  0.77931929    -0.79910
O217        O  0.41174858  0.42596974  0.86559269    -0.81240
O218        O  0.50485995  0.08156079  0.87950065    -0.81530
Eu219      Eu  0.47714915  0.00636378  0.84157575     2.39200
O220        O  0.50372077  0.46049673  0.80445640    -0.89040
O221        O  0.47573681  0.05703704  0.78207213    -0.92640
C222        C  0.01837237  0.12117634  0.86174904     1.02050
C223        C  0.38881063  0.38408122  0.84911109     1.01870
C224        C  0.37446837  0.02310319  0.82541979     1.01810
C225        C  0.08254724  0.99898597  0.89284902     0.99670
H226        H  0.38811092  0.44264258  0.78752517     0.29420
O227        O  0.42092549  0.46062451  0.77741314    -1.01430
H228        H  0.06596213  0.06805840  0.83614450     0.29450
O229        O  0.04890934  0.05084758  0.80792424    -1.03970
O230        O  0.46167809  0.37463807  0.67679901    -0.81190
O231        O  0.10100857  0.13691169  0.68197456    -0.80730
O232        O  0.34894335  0.43249925  0.68495158    -0.79170
O233        O  0.05170190  0.42987537  0.81877669    -0.82510
O234        O  0.14277149  0.08551515  0.81493179    -0.80360
O235        O  0.44061778  0.09201489  0.68546229    -0.79010
O236        O  0.45815027  0.99560963  0.60064061    -0.80530
O237        O  0.09823466  0.00218043  0.64321827    -0.82460
O238        O  0.43376902  0.03924349  0.63782595    -0.79200
O239        O  0.13349325  0.00158418  0.71518574    -0.81870
O240        O  0.37197492  0.37869090  0.69989313    -0.77610
O241        O  0.01213584  0.14080429  0.70367804    -0.77640
O242        O  0.12395523  0.14052834  0.79261121    -0.77280
O243        O  0.47706288  0.37089537  0.79579574    -0.80780
O244        O  0.00086229  0.43177120  0.62093303    -0.80210
O245        O  0.08156974  0.08057952  0.62543792    -0.78530
Eu246      Eu  0.44912022  0.41279390  0.74522244     2.39770
Eu247      Eu  0.04748658  0.09983688  0.74841319     2.39570
Eu248      Eu  0.42328939  0.01505469  0.71827619     2.38400
Eu249      Eu  0.08097388  0.00645625  0.77736951     2.39880
Eu250      Eu  0.02521356  0.00564684  0.65679666     2.39790
O251        O  0.07907745  0.05458720  0.71741570    -0.92950
O252        O  0.44958383  0.46284830  0.68818162    -0.91840
C253        C  0.48059740  0.38869949  0.63568103     1.02220
C254        C  0.10472677  0.12254462  0.64055084     1.00940
C255        C  0.34506785  0.39225656  0.67833663     1.00330
C256        C  0.01571426  0.38784960  0.82225647     1.02340
C257        C  0.14905291  0.12737530  0.81775473     1.01260
C258        C  0.47851866  0.13247895  0.68149184     1.00110
C259        C  0.42807172  0.01071501  0.60568340     1.00170
C260        C  0.13133104  0.00065180  0.66881472     1.02780
H261        H  0.99814178  0.07070232  0.65880568     0.30150
O262        O  0.99622532  0.05294816  0.68657668    -1.05110
H263        H  0.04236806  0.43945995  0.70627047     0.32200
O264        O  0.02975204  0.45872921  0.71703238    -1.07670
C265        C  0.28506613  0.31160384  0.54612577    -0.00260
C266        C  0.25365562  0.31795444  0.57649333    -0.12130
C267        C  0.27090491  0.34504262  0.61948462     0.01980
C268        C  0.31994313  0.36473254  0.63387034    -0.00340
C269        C  0.35061174  0.35978162  0.60291638    -0.12070
C270        C  0.33469548  0.33528594  0.56004987     0.01860
H271        H  0.21587258  0.30247809  0.56635115     0.14840
H272        H  0.38881927  0.37667064  0.61201354     0.14840
C273        C  0.37256663  0.33713071  0.53214380     0.36500
C274        C  0.23814455  0.35235636  0.64770560     0.36400
N275        N  0.40587134  0.34202785  0.51208667    -0.43850
N276        N  0.21192082  0.35865537  0.67007835    -0.43840
C277        C  0.13641912  0.15625527  0.60644730    -0.00260
C278        C  0.18615097  0.18102872  0.61585325    -0.12130
C279        C  0.21753169  0.20797716  0.58019943     0.01980
C280        C  0.19862419  0.21327902  0.53592110    -0.00340
C281        C  0.14904168  0.18653004  0.52678784    -0.12070
C282        C  0.11783903  0.15864956  0.56137386     0.01860
H283        H  0.20057592  0.17610709  0.64940168     0.14840
H284        H  0.13487173  0.18637571  0.49145833     0.14840
C285        C  0.06688607  0.13196378  0.54961158     0.36500
C286        C  0.26763057  0.22133796  0.58609241     0.36400
N287        N  0.02606800  0.11049470  0.54063239    -0.43850
N288        N  0.30753780  0.23066549  0.58959775    -0.43840
C289        C  0.35119719  0.34961781  0.87857527    -0.00260
C290        C  0.35726021  0.31536844  0.90097060    -0.12130
C291        C  0.32750128  0.29072222  0.93843839     0.01980
C292        C  0.29560278  0.30464495  0.95649023    -0.00340
C293        C  0.28631141  0.33512300  0.93022117    -0.12070
C294        C  0.31073393  0.35352057  0.88830221     0.01860
H295        H  0.38540178  0.30859056  0.88995720     0.14840
H296        H  0.25723992  0.34101280  0.94018728     0.14840
C297        C  0.28867316  0.36696589  0.85094277     0.36500
C298        C  0.33262334  0.25394213  0.95983466     0.36400
N299        N  0.26977739  0.37402124  0.81898335    -0.43850
N300        N  0.33685440  0.22454320  0.97689151    -0.43840
C301        C  0.18042288  0.16075156  0.85765198    -0.00260
C302        C  0.19215052  0.14359216  0.89862192    -0.12130
C303        C  0.20643221  0.16844329  0.94262903     0.01980
C304        C  0.21402922  0.21374007  0.94619320    -0.00340
C305        C  0.20380436  0.23167900  0.90481423    -0.12070
C306        C  0.18841885  0.20664913  0.86120517     0.01860
H307        H  0.18706213  0.10931400  0.89665280     0.14840
H308        H  0.20515665  0.26454382  0.90689722     0.14840
C309        C  0.18041328  0.22936116  0.82099659     0.36500
C310        C  0.20738285  0.14530748  0.98572225     0.36400
N311        N  0.17419038  0.24788639  0.78896178    -0.43850
N312        N  0.20964513  0.12679610  0.52090350    -0.43840
C313        C  0.31660340  0.50001740  0.51802744    -0.00260
C314        C  0.30096298  0.98046240  0.57037775    -0.12130
C315        C  0.34171105  0.99216887  0.59817758     0.01980
C316        C  0.38277560  0.99374340  0.57782672    -0.00340
C317        C  0.39123762  0.49471780  0.52555390    -0.12070
C318        C  0.35141024  0.48951731  0.49838030     0.01860
H319        H  0.27041920  0.97497551  0.58963304     0.14840
H320        H  0.41706385  0.48674961  0.50983210     0.14840
C321        C  0.34685116  0.46776827  0.95301508     0.36500
C322        C  0.33898305  0.00361969  0.64735006     0.36400
N323        N  0.34702338  0.44959093  0.91812297    -0.43850
N324        N  0.33480429  0.01248913  0.68621493    -0.43840
C325        C  0.22365014  0.50177144  0.55940817    -0.00260
C326        C  0.19102038  0.46025943  0.58114371    -0.12130
C327        C  0.16560453  0.46018339  0.62166584     0.01980
C328        C  0.16798247  0.99684364  0.64084019    -0.00340
C329        C  0.20563910  0.03709013  0.62183076    -0.12070
C330        C  0.22971366  0.03531935  0.58121478     0.01860
H331        H  0.18293480  0.42791972  0.56450739     0.14840
H332        H  0.21404532  0.07024115  0.63674303     0.14840
C333        C  0.26836634  0.07780572  0.56360110     0.36500
C334        C  0.13028487  0.41680483  0.64115908     0.36400
N335        N  0.29968413  0.11224657  0.55041207    -0.43850
N336        N  0.10200926  0.38227337  0.65731397    -0.43840
C337        C  0.33483609  0.02456298  0.85122106    -0.00260
C338        C  0.28938393  0.47737715  0.85920401    -0.12130
C339        C  0.26597232  0.47027896  0.90289246     0.01980
C340        C  0.28353393  0.50683872  0.93670240    -0.00340
C341        C  0.32069664  0.05357807  0.92479153    -0.12070
C342        C  0.34372776  0.06176013  0.88114700     0.01860
H343        H  0.27948376  0.44878291  0.83535808     0.14840
H344        H  0.33177213  0.08174888  0.95008351     0.14840
C345        C  0.36333426  0.10730607  0.86240123     0.36500
C346        C  0.23246773  0.42350189  0.91566474     0.36400
N347        N  0.37380443  0.14342494  0.84800510    -0.43740
N348        N  0.20619181  0.38564614  0.92540376    -0.43840
C349        C  0.11211535  0.49446708  0.93244559    -0.00260
C350        C  0.14675005  0.03381100  0.95425613    -0.12130
C351        C  0.19213521  0.03860289  0.96759456     0.01980
C352        C  0.19680942  0.50063587  0.97625226    -0.00340
C353        C  0.16000195  0.45921471  0.95901394    -0.12070
C354        C  0.12386652  0.45826934  0.92941878     0.01860
H355        H  0.14249863  0.06374259  0.95161140     0.14840
H356        H  0.16654029  0.43070930  0.95921688     0.14840
C357        C  0.12050875  0.43464529  0.88541109     0.36500
C358        C  0.23593588  0.08011137  0.95675896     0.36400
N359        N  0.12513216  0.41876076  0.85060704    -0.43850
N360        N  0.26899744  0.10616928  0.44755858    -0.43840
C361        C  0.48420668  0.35617310  0.60296872    -0.00260
C362        C  0.52494806  0.37400956  0.57442923    -0.12130
C363        C  0.53111161  0.34592719  0.54248401     0.01980
C364        C  0.49458263  0.30049612  0.53469831    -0.00340
C365        C  0.95259554  0.28214440  0.56372377    -0.12070
C366        C  0.94945099  0.30960748  0.59973921     0.01860
H367        H  0.55321482  0.40958768  0.57850169     0.14840
H368        H  0.92381225  0.24699853  0.55856798     0.14840
C369        C  0.91158639  0.28850803  0.63382171     0.36500
C370        C  0.57496411  0.35989560  0.02119312     0.36400
N371        N  0.88254214  0.27192684  0.66252786    -0.43850
N372        N  0.61094160  0.36716695  0.00521593    -0.43840
C373        C  0.49220926  0.21385968  0.55351381    -0.00260
C374        C  0.44817543  0.17445613  0.56395754    -0.12130
C375        C  0.44057705  0.15190490  0.60845197     0.01980
C376        C  0.47900411  0.16454095  0.64218892    -0.00340
C377        C  0.01710624  0.20161100  0.63159455    -0.12070
C378        C  0.02307542  0.22822075  0.59042703     0.01860
H379        H  0.41880313  0.16216903  0.53775760     0.14840
H380        H  0.04697588  0.21307401  0.65708699     0.14840
C381        C  0.06616273  0.27241272  0.58919767     0.36500
C382        C  0.39191135  0.11978334  0.62074716     0.36400
N383        N  0.10156197  0.30738331  0.59078886    -0.43850
N384        N  0.35258923  0.09615129  0.63180351    -0.43840
C385        C  0.00056805  0.29691619  0.94345100    -0.00260
C386        C  0.47400691  0.31936289  0.93881704    -0.12130
C387        C  0.98549371  0.35446039  0.90387659     0.01980
C388        C  0.01314024  0.35778749  0.86407543    -0.00340
C389        C  0.03556150  0.33053985  0.86510723    -0.12070
C390        C  0.03400225  0.30474530  0.90640983     0.01860
H391        H  0.44869536  0.31519876  0.96568932     0.14840
H392        H  0.05803547  0.33281979  0.83567765     0.14840
C393        C  0.07175162  0.29332019  0.91100934     0.36500
C394        C  0.47428385  0.38895628  0.91688367     0.36400
N395        N  0.10391226  0.28653750  0.91229823    -0.43850
N396        N  0.46724731  0.41715237  0.93209036    -0.43840
C397        C  0.00267461  0.20690976  0.96348386    -0.00260
C398        C  0.47755794  0.19519256  0.92145698    -0.12130
C399        C  0.48923500  0.17387460  0.88509239     0.01980
C400        C  0.01711657  0.15507201  0.89379975    -0.00340
C401        C  0.04482380  0.16794255  0.93593206    -0.12070
C402        C  0.04087084  0.19750863  0.96839756     0.01860
H403        H  0.45059436  0.20531188  0.91473212     0.14840
H404        H  0.07182355  0.15772079  0.94114001     0.14840
C405        C  0.08229481  0.22728403  0.99776535     0.36500
C406        C  0.47345007  0.17383960  0.83637636     0.36400
N407        N  0.11650433  0.25142608  0.51968749    -0.43850
N408        N  0.46249606  0.17439523  0.79679099    -0.43840
C409        C  0.49263469  0.73131404  0.00228612     0.00460
C410        C  0.99234363  0.77211979  0.49241065     0.00460
C411        C  0.22756003  0.99065676  0.50680973     0.00460
C412        C  0.26390363  0.98326223  0.48984018     0.00460
C413        C  0.22899350  0.74214476  0.49466079     0.00460
C414        C  0.26862267  0.78569421  0.49907541     0.00460
O415        O  0.03376725  0.63475999  0.31930534    -0.80230
O416        O  0.39622250  0.87046735  0.30778947    -0.81790
O417        O  0.40420571  0.51644556  0.35050143    -0.78810
O418        O  0.04193815  0.49900131  0.39624303    -0.77190
O419        O  0.10753932  0.50799437  0.35505912    -0.78980
O420        O  0.36651690  0.51310280  0.27865061    -0.79910
O421        O  0.41251119  0.92548544  0.36504908    -0.81240
O422        O  0.50200400  0.57991535  0.37813116    -0.81530
Eu423      Eu  0.47528324  0.50437972  0.34124612     2.39200
O424        O  0.50400472  0.96076112  0.30451292    -0.89040
O425        O  0.47119084  0.55172561  0.27974085    -0.92640
C426        C  0.01871193  0.62159154  0.36193674     1.02050
C427        C  0.38957057  0.88363796  0.34833918     1.01870
C428        C  0.37031003  0.51728188  0.32456422     1.01810
C429        C  0.08422609  0.50072702  0.39313645     0.99670
H430        H  0.38858370  0.94295304  0.28798172     0.29420
O431        O  0.42137201  0.96107429  0.27784412    -1.01430
H432        H  0.06715107  0.56917846  0.33618174     0.29450
O433        O  0.05025429  0.55191923  0.30793231    -1.03970
O434        O  0.46149275  0.87529943  0.17622915    -0.81190
O435        O  0.10175582  0.63844156  0.18209946    -0.80730
O436        O  0.34889948  0.93348038  0.18620657    -0.79170
O437        O  0.04779346  0.92823763  0.31797739    -0.82510
O438        O  0.14427352  0.58721500  0.31529460    -0.80360
O439        O  0.43589109  0.58533112  0.17981484    -0.79010
O440        O  0.47288040  0.51055521  0.09280082    -0.80530
O441        O  0.10098962  0.50448554  0.14314007    -0.82460
O442        O  0.41307982  0.47354943  0.14106472    -0.79200
O443        O  0.13624459  0.50414598  0.21520895    -0.81870
O444        O  0.37235725  0.87976126  0.19968021    -0.77610
O445        O  0.01223259  0.64098864  0.20370723    -0.77640
O446        O  0.12475306  0.64173057  0.29288859    -0.77280
O447        O  0.47741904  0.87130313  0.29550261    -0.80780
O448        O  0.99880485  0.93075846  0.12033465    -0.80210
O449        O  0.08301673  0.58231930  0.12547455    -0.78530
Eu450      Eu  0.44952810  0.91340066  0.24500115     2.39770
Eu451      Eu  0.04839376  0.60075428  0.24852732     2.39570
Eu452      Eu  0.41797359  0.50860184  0.21671056     2.38400
Eu453      Eu  0.08310461  0.50810255  0.27753792     2.39880
Eu454      Eu  0.02725201  0.50691311  0.15674936     2.39790
O455        O  0.08066233  0.55603375  0.21757965    -0.92950
O456        O  0.44977940  0.96384666  0.18869740    -0.91840
C457        C  0.48022672  0.88919160  0.13502556     1.02220
C458        C  0.10571726  0.62431561  0.14062788     1.00940
C459        C  0.34520494  0.89342322  0.17882076     1.00330
C460        C  0.01200843  0.88619204  0.32169275     1.02340
C461        C  0.15006364  0.62888276  0.31812788     1.01260
C462        C  0.47220022  0.62709428  0.17823236     1.00110
C463        C  0.42892315  0.49640648  0.10368113     1.00170
C464        C  0.13435336  0.50344656  0.16879691     1.02780
H465        H  0.99919031  0.57124671  0.15895917     0.30150
O466        O  0.99747446  0.55352257  0.18668883    -1.05110
H467        H  0.04004492  0.93788462  0.20542784     0.32200
O468        O  0.02753213  0.95725247  0.21614850    -1.07670
C469        C  0.28512583  0.81476801  0.04561467    -0.00260
C470        C  0.25367699  0.82026606  0.07672745    -0.12130
C471        C  0.27094532  0.84663781  0.12012323     0.01980
C472        C  0.32010409  0.86659827  0.13405237    -0.00340
C473        C  0.35086546  0.86272552  0.10231551    -0.12070
C474        C  0.33488689  0.83883041  0.05911042     0.01860
H475        H  0.21578131  0.80451190  0.06696651     0.14840
H476        H  0.38914432  0.87987319  0.11115350     0.14840
C477        C  0.37279886  0.84145911  0.03062222     0.36500
C478        C  0.23803476  0.85281894  0.14931813     0.36400
N479        N  0.40614091  0.84689145  0.01023151    -0.43850
N480        N  0.21167139  0.85817943  0.17250156    -0.43840
C481        C  0.13705955  0.65840721  0.10651768    -0.00260
C482        C  0.18681537  0.68370736  0.11572254    -0.12130
C483        C  0.21787675  0.71109930  0.08003161     0.01980
C484        C  0.19862379  0.71636251  0.03593133    -0.00340
C485        C  0.14905583  0.68912424  0.02703629    -0.12070
C486        C  0.11816425  0.66084401  0.06163725     0.01860
H487        H  0.20156465  0.67882594  0.14908004     0.14840
H488        H  0.13473140  0.68870012  0.99174585     0.14840
C489        C  0.06722075  0.63371731  0.05003094     0.36500
C490        C  0.26806160  0.72471953  0.08547070     0.36400
N491        N  0.02641009  0.61189555  0.04116733    -0.43850
N492        N  0.30804653  0.73424866  0.08846006    -0.43840
C493        C  0.35183957  0.84898191  0.37743229    -0.00260
C494        C  0.35807202  0.81513546  0.40051766    -0.12130
C495        C  0.32820397  0.79088067  0.43806185     0.01980
C496        C  0.29643942  0.80519752  0.45559913    -0.00340
C497        C  0.28673355  0.83487342  0.42836054    -0.12070
C498        C  0.31093671  0.85236897  0.38617709     0.01860
H499        H  0.38640409  0.80842972  0.39003692     0.14840
H500        H  0.25778120  0.84103750  0.43802623     0.14840
C501        C  0.28899998  0.86525909  0.34818415     0.36500
C502        C  0.33325077  0.75434719  0.46020202     0.36400
N503        N  0.27038754  0.87197275  0.31572842    -0.43850
N504        N  0.33743251  0.72516370  0.47788658    -0.43840
C505        C  0.18106161  0.66234022  0.35811567    -0.00260
C506        C  0.19337881  0.64547793  0.39899189    -0.12130
C507        C  0.20759243  0.67038816  0.44297353     0.01980
C508        C  0.21435075  0.71535813  0.44658465    -0.00340
C509        C  0.20321635  0.73286311  0.40544828    -0.12070
C510        C  0.18812306  0.70790648  0.36182749     0.01860
H511        H  0.18890176  0.61141412  0.39699998     0.14840
H512        H  0.20379273  0.76537217  0.40773778     0.14840
C513        C  0.17947447  0.73037821  0.32178876     0.36500
C514        C  0.20935287  0.64765497  0.48607121     0.36400
N515        N  0.17273940  0.74872534  0.28990495    -0.43850
N516        N  0.20870785  0.62988743  0.02118095    -0.43840
C517        C  0.31605041  0.99984806  0.01836617    -0.00260
C518        C  0.32352635  0.51243555  0.06605161    -0.12130
C519        C  0.35800064  0.50981853  0.09468913     0.01980
C520        C  0.39417035  0.50314152  0.07419214    -0.00340
C521        C  0.39094375  0.99505100  0.02625489    -0.12070
C522        C  0.35127722  0.98989881  0.99884676     0.01860
H523        H  0.30232222  0.52404698  0.08345265     0.14840
H524        H  0.41706473  0.98746732  0.01057577     0.14840
C525        C  0.34166131  0.95792379  0.45455717     0.36500
C526        C  0.35130604  0.51138740  0.14508202     0.36400
N527        N  0.34716885  0.94621047  0.41769688    -0.43850
N528        N  0.34139825  0.51243239  0.18432205    -0.43840
C529        C  0.22221353  0.00050558  0.05864789    -0.00260
C530        C  0.18939058  0.95896025  0.08022859    -0.12130
C531        C  0.16384364  0.95884016  0.12068806     0.01980
C532        C  0.17245134  0.50185597  0.14090061    -0.00340
C533        C  0.20842287  0.54321632  0.12213386    -0.12070
C534        C  0.23389790  0.54340029  0.08191315     0.01860
H535        H  0.18135314  0.92664002  0.06358151     0.14840
H536        H  0.21419072  0.57563608  0.13677606     0.14840
C537        C  0.27041749  0.58723622  0.06441780     0.36500
C538        C  0.12847241  0.91547241  0.14014693     0.36400
N539        N  0.30030565  0.62266795  0.05158577    -0.43850
N540        N  0.10013852  0.88101471  0.15638186    -0.43840
C541        C  0.33112269  0.51939713  0.35034293    -0.00260
C542        C  0.28755196  0.97247725  0.35882344    -0.12130
C543        C  0.26184399  0.96134734  0.40153156     0.01980
C544        C  0.27715633  0.99464741  0.43866578    -0.00340
C545        C  0.31865105  0.55117176  0.42274832    -0.12070
C546        C  0.34059139  0.55767446  0.37869979     0.01860
H547        H  0.27857783  0.94630024  0.33204121     0.14840
H548        H  0.33030978  0.58024698  0.44691506     0.14840
C549        C  0.36014657  0.60246659  0.35808227     0.36500
C550        C  0.22683961  0.91385121  0.40942135     0.36400
N551        N  0.37054378  0.63793936  0.34193633    -0.43740
N552        N  0.19907085  0.87555210  0.41550960    -0.43840
C553        C  0.10918548  0.99053027  0.42963720    -0.00260
C554        C  0.14812080  0.53546133  0.45478953    -0.12130
C555        C  0.19330751  0.54004466  0.46847494     0.01980
C556        C  0.19147382  0.99301313  0.47422579    -0.00340
C557        C  0.15587079  0.95319693  0.45292312    -0.12070
C558        C  0.12096416  0.95455312  0.42356404     0.01860
H559        H  0.14412029  0.56553125  0.45193856     0.14840
H560        H  0.16205760  0.92444579  0.45087765     0.14840
C561        C  0.11879483  0.93361438  0.37804297     0.36500
C562        C  0.23721897  0.58145987  0.45769834     0.36400
N563        N  0.12369593  0.91926695  0.34227648    -0.43850
N564        N  0.27241143  0.61398960  0.94687718    -0.43840
C565        C  0.48260677  0.85609294  0.10206506    -0.00260
C566        C  0.52293161  0.87292852  0.07304259    -0.12130
C567        C  0.52791570  0.84402177  0.04114655     0.01980
C568        C  0.49052162  0.79882599  0.03380285    -0.00340
C569        C  0.95063455  0.78101695  0.06348904    -0.12070
C570        C  0.94736205  0.80850467  0.09937200     0.01860
H571        H  0.55182471  0.90827188  0.07681086     0.14840
H572        H  0.92198903  0.74578979  0.05845875     0.14840
C573        C  0.90961109  0.78735411  0.13356335     0.36500
C574        C  0.57661099  0.85885982  0.52164373     0.36400
N575        N  0.88065478  0.77072034  0.16234478    -0.43850
N576        N  0.61234037  0.86504986  0.50594174    -0.43840
C577        C  0.48520645  0.71064328  0.05272507    -0.00260
C578        C  0.44064543  0.67182757  0.06363034    -0.12130
C579        C  0.43344950  0.64891146  0.10796026     0.01980
C580        C  0.47259245  0.65988769  0.14001766    -0.00340
C581        C  0.01647106  0.70136450  0.13145508    -0.12070
C582        C  0.02206794  0.72785176  0.09027861     0.01860
H583        H  0.41070288  0.66059713  0.03827173     0.14840
H584        H  0.04645522  0.71305501  0.15684050     0.14840
C585        C  0.06490247  0.77221786  0.08897607     0.36500
C586        C  0.38510181  0.62011484  0.12356757     0.36400
N587        N  0.10012393  0.80733957  0.09054451    -0.43850
N588        N  0.34681603  0.59938937  0.13851130    -0.43840
C589        C  0.99717507  0.79544610  0.44313346    -0.00260
C590        C  0.47490206  0.81968561  0.43872741    -0.12130
C591        C  0.98201108  0.85299023  0.40348994     0.01980
C592        C  0.00975964  0.85644271  0.36374199    -0.00340
C593        C  0.03273748  0.82970399  0.36508066    -0.12070
C594        C  0.03094203  0.80367715  0.40627742     0.01860
H595        H  0.44980283  0.81553192  0.46572169     0.14840
H596        H  0.05550019  0.83226110  0.33582639     0.14840
C597        C  0.06855842  0.79207720  0.41082390     0.36500
C598        C  0.47501779  0.88918526  0.41673401     0.36400
N599        N  0.10045684  0.78491414  0.41206582    -0.43850
N600        N  0.46792278  0.91733591  0.43196236    -0.43840
C601        C  0.00087743  0.70602960  0.46375040    -0.00260
C602        C  0.47578034  0.69473448  0.42073060    -0.12130
C603        C  0.48680172  0.67325983  0.38398725     0.01980
C604        C  0.01681934  0.65515466  0.39402243    -0.00340
C605        C  0.04397417  0.66784062  0.43650761    -0.12070
C606        C  0.03932217  0.69697718  0.46900459     0.01860
H607        H  0.44931698  0.70555192  0.41432742     0.14840
H608        H  0.07119049  0.65792242  0.44200233     0.14840
C609        C  0.08045432  0.72682969  0.49866590     0.36500
C610        C  0.47192295  0.67487387  0.33532004     0.36400
N611        N  0.11627312  0.75378042  0.01839003    -0.43850
N612        N  0.46191526  0.67696543  0.29575530    -0.43840
C613        C  0.49471418  0.73201028  0.50277922     0.00460
C614        C  0.99434895  0.77251746  0.99316671     0.00460
C615        C  0.23477760  0.00029006  0.00723408     0.00460
C616        C  0.27502811  0.00019551  0.98904321     0.00460
C617        C  0.22857127  0.74182156  0.99430674     0.00460
C618        C  0.26735349  0.78581721  0.99918735     0.00460
O619        O  0.03361975  0.63488553  0.81908130    -0.80230
O620        O  0.39524207  0.87343713  0.80793668    -0.81790
O621        O  0.40415846  0.51605388  0.85039362    -0.78810
O622        O  0.04184542  0.49904324  0.89567117    -0.77190
O623        O  0.10758108  0.50847315  0.85443531    -0.78980
O624        O  0.36657041  0.51277684  0.77849551    -0.79910
O625        O  0.41227154  0.92862144  0.86525098    -0.81240
O626        O  0.50155234  0.57935480  0.87823937    -0.81530
Eu627      Eu  0.47519165  0.50391231  0.84121446     2.39200
O628        O  0.50414098  0.96192679  0.80415336    -0.89040
O629        O  0.47121082  0.55128043  0.77971837    -0.92640
C630        C  0.01871220  0.62166560  0.86173418     1.02050
C631        C  0.38864387  0.88683741  0.84848079     1.01870
C632        C  0.37031567  0.51693968  0.82441329     1.01810
C633        C  0.08423204  0.50096251  0.89250833     0.99670
H634        H  0.39055368  0.94702612  0.78660021     0.29420
O635        O  0.42354739  0.96438358  0.77682052    -1.01430
H636        H  0.06695793  0.56937321  0.83579034     0.29450
O637        O  0.04999698  0.55212804  0.80755617    -1.03970
O638        O  0.46198040  0.87596130  0.67647362    -0.81190
O639        O  0.10160390  0.63878351  0.68201624    -0.80730
O640        O  0.35932573  0.93992514  0.67981225    -0.79170
O641        O  0.04971169  0.92799075  0.81892485    -0.82510
O642        O  0.14403571  0.58740615  0.81467056    -0.80360
O643        O  0.43625741  0.58517778  0.67977996    -0.79010
O644        O  0.47312124  0.51057918  0.59283535    -0.80530
O645        O  0.10089487  0.50472751  0.64289346    -0.82460
O646        O  0.41312693  0.47336223  0.64085089    -0.79200
O647        O  0.13593207  0.50421414  0.71502030    -0.81870
O648        O  0.37302141  0.88101937  0.69915567    -0.77610
O649        O  0.01210944  0.64136341  0.70319405    -0.77640
O650        O  0.12449125  0.64198124  0.79255696    -0.77280
O651        O  0.47585313  0.87207165  0.79570606    -0.80780
O652        O  0.99771106  0.93014284  0.62117816    -0.80210
O653        O  0.08294836  0.58275285  0.62530706    -0.78530
Eu654      Eu  0.44945534  0.91491425  0.74455205     2.39770
Eu655      Eu  0.04809235  0.60098200  0.74818854     2.39570
Eu656      Eu  0.41806233  0.50830463  0.71655242     2.38400
Eu657      Eu  0.08273761  0.50828618  0.77707516     2.39880
Eu658      Eu  0.02711065  0.50719161  0.65636998     2.39790
O659        O  0.08044807  0.55632819  0.71719715    -0.92950
O660        O  0.44802410  0.96466261  0.68699714    -0.91840
C661        C  0.48236334  0.88976039  0.63589593     1.02220
C662        C  0.10563019  0.62473222  0.64054706     1.00940
C663        C  0.35067706  0.89792886  0.67507526     1.00330
C664        C  0.01336064  0.88617567  0.82248750     1.02340
C665        C  0.14989631  0.62909322  0.81759020     1.01260
C666        C  0.47264319  0.62691692  0.67843478     1.00110
C667        C  0.42911835  0.49638635  0.60359225     1.00170
C668        C  0.13416833  0.50359253  0.66862805     1.02780
H669        H  0.99890311  0.57146601  0.65862558     0.30150
O670        O  0.99719271  0.55373031  0.68634382    -1.05110
H671        H  0.03990559  0.93749144  0.70644205     0.32200
O672        O  0.02768383  0.95705011  0.71731427    -1.07670
C673        C  0.28744765  0.81577551  0.54473537    -0.00260
C674        C  0.25693822  0.82300263  0.57552723    -0.12130
C675        C  0.27539369  0.85104101  0.61777641     0.01980
C676        C  0.32476975  0.87093240  0.63084114    -0.00340
C677        C  0.35458986  0.86542476  0.59948601    -0.12070
C678        C  0.33748155  0.83988172  0.55737051     0.01860
H679        H  0.21893363  0.80743805  0.56631854     0.14840
H680        H  0.39296003  0.88233794  0.60792280     0.14840
C681        C  0.37476870  0.84107907  0.52915665     0.36500
C682        C  0.24359692  0.85936903  0.64643482     0.36400
N683        N  0.40800790  0.84576514  0.50918165    -0.43850
N684        N  0.21816948  0.86656356  0.66909337    -0.43840
C685        C  0.13705320  0.65894619  0.60659350    -0.00260
C686        C  0.18673248  0.68447881  0.61612079    -0.12130
C687        C  0.21795457  0.71203743  0.58062185     0.01980
C688        C  0.19889884  0.71724829  0.53637195    -0.00340
C689        C  0.14931669  0.69007834  0.52730891    -0.12070
C690        C  0.11831981  0.66152366  0.56169201     0.01860
H691        H  0.20133900  0.67961251  0.64958071     0.14840
H692        H  0.13504575  0.68978910  0.49200217     0.14840
C693        C  0.06744694  0.63420479  0.54983573     0.36500
C694        C  0.26814612  0.72583443  0.58648860     0.36400
N695        N  0.02668783  0.61219634  0.54081046    -0.43850
N696        N  0.30815887  0.73553188  0.58991890    -0.43840
C697        C  0.35093051  0.85232689  0.87803617    -0.00260
C698        C  0.35684271  0.81776292  0.89992204    -0.12130
C699        C  0.32732307  0.79296825  0.93749893     0.01980
C700        C  0.29545416  0.80671184  0.95601408    -0.00340
C701        C  0.28610979  0.83738345  0.93013597    -0.12070
C702        C  0.31054566  0.85623802  0.88826445     0.01860
H703        H  0.38474057  0.81084440  0.88842810     0.14840
H704        H  0.25706989  0.84321139  0.94041900     0.14840
C705        C  0.28854204  0.87032629  0.85145834     0.36500
C706        C  0.33265870  0.75616463  0.95852130     0.36400
N707        N  0.26953935  0.87798261  0.82004646    -0.43850
N708        N  0.33706468  0.72676202  0.97530910    -0.43840
C709        C  0.18114194  0.66250565  0.85748773    -0.00260
C710        C  0.19322683  0.64547511  0.89835888    -0.12130
C711        C  0.20746592  0.67031679  0.94235625     0.01980
C712        C  0.21445560  0.71538984  0.94604155    -0.00340
C713        C  0.20396321  0.73323074  0.90475935    -0.12070
C714        C  0.18872367  0.70825383  0.86113000     0.01860
H715        H  0.18849171  0.61131014  0.89637447     0.14840
H716        H  0.20510016  0.76600312  0.90692950     0.14840
C717        C  0.18046512  0.73086674  0.82098523     0.36500
C718        C  0.20912191  0.64740149  0.98535012     0.36400
N719        N  0.17404618  0.74931962  0.78900352    -0.43850
N720        N  0.20904826  0.63030522  0.52198024    -0.43840
C721        C  0.30075563  0.97715455  0.52064874    -0.00260
C722        C  0.32399803  0.51291751  0.56613968    -0.12130
C723        C  0.35839668  0.51012391  0.59472179     0.01980
C724        C  0.39449254  0.50336534  0.57415840    -0.00340
C725        C  0.37984304  0.98078010  0.53054333    -0.12070
C726        C  0.33986501  0.97267436  0.50186680     0.01860
H727        H  0.30289316  0.52463628  0.58356594     0.14840
H728        H  0.40991355  0.97914454  0.51531649     0.14840
C729        C  0.34761490  0.96951572  0.95306097     0.36500
C730        C  0.35160094  0.51147970  0.64511670     0.36400
N731        N  0.34828538  0.95231035  0.91766212    -0.43850
N732        N  0.34158861  0.51234822  0.68435183    -0.43840
C733        C  0.21479975  0.99282411  0.55761276    -0.00260
C734        C  0.18030867  0.95225322  0.57949676    -0.12130
C735        C  0.15751577  0.95399672  0.62113838     0.01980
C736        C  0.17238714  0.50206507  0.64091536    -0.00340
C737        C  0.20837572  0.54344800  0.62221682    -0.12070
C738        C  0.23410929  0.54365149  0.58221945     0.01860
H739        H  0.17025917  0.91934666  0.56316013     0.14840
H740        H  0.21396911  0.57585288  0.63672442     0.14840
C741        C  0.27064103  0.58749482  0.56475263     0.36500
C742        C  0.12145213  0.91161395  0.64180033     0.36400
N743        N  0.30054077  0.62292380  0.55192751    -0.43850
N744        N  0.09269205  0.87791308  0.65896042    -0.43840
C745        C  0.33109229  0.51903161  0.85014278    -0.00260
C746        C  0.29278001  0.98264114  0.85854479    -0.12130
C747        C  0.26809444  0.97402136  0.90169389     0.01980
C748        C  0.28499021  0.00921726  0.93703935    -0.00340
C749        C  0.31850454  0.55078996  0.92250217    -0.12070
C750        C  0.34046624  0.55731023  0.87845765     0.01860
H751        H  0.28338740  0.95493574  0.83355675     0.14840
H752        H  0.33007319  0.57987431  0.94663563     0.14840
C753        C  0.35975613  0.60204078  0.85773907     0.36500
C754        C  0.23360995  0.92690922  0.91223685     0.36400
N755        N  0.36993726  0.63743755  0.84151769    -0.43740
N756        N  0.20663147  0.88872439  0.92002446    -0.43840
C757        C  0.11064233  0.99269059  0.93280466    -0.00260
C758        C  0.14808130  0.53543554  0.95428881    -0.12130
C759        C  0.19324155  0.53998583  0.96806446     0.01980
C760        C  0.19602038  0.99943749  0.97581156    -0.00340
C761        C  0.15902723  0.95779862  0.95920839    -0.12070
C762        C  0.12242064  0.95647836  0.92998720     0.01860
H763        H  0.14405257  0.56549468  0.95158424     0.14840
H764        H  0.16560543  0.92927873  0.95964618     0.14840
C765        C  0.11833232  0.93223508  0.88624434     0.36500
C766        C  0.23719042  0.58136483  0.95726173     0.36400
N767        N  0.12253141  0.91597458  0.85151414    -0.43850
N768        N  0.27241739  0.61410219  0.44730605    -0.43840
C769        C  0.48522490  0.85657532  0.60333533    -0.00260
C770        C  0.52590456  0.87333521  0.57474919    -0.12130
C771        C  0.53088415  0.84455640  0.54262442     0.01980
C772        C  0.49320074  0.79964075  0.53462234    -0.00340
C773        C  0.94899455  0.78043108  0.56346203    -0.12070
C774        C  0.94614059  0.80780912  0.59980405     0.01860
H775        H  0.55493751  0.90856785  0.57884788     0.14840
H776        H  0.92054237  0.74507836  0.55879017     0.14840
C777        C  0.90920066  0.78639817  0.63476188     0.36500
C778        C  0.57345750  0.85859414  0.01969271     0.36400
N779        N  0.88083821  0.76946182  0.66403495    -0.43850
N780        N  0.60908599  0.86502249  0.00355793    -0.43840
C781        C  0.48697586  0.71104841  0.55308424    -0.00260
C782        C  0.44213769  0.67247650  0.56380172    -0.12130
C783        C  0.43455308  0.64931707  0.60802734     0.01980
C784        C  0.47348105  0.65987502  0.64021830    -0.00340
C785        C  0.01581787  0.70187858  0.63095874    -0.12070
C786        C  0.02101360  0.72830946  0.58978261     0.01860
H787        H  0.41230865  0.66161641  0.53836539     0.14840
H788        H  0.04587242  0.71380761  0.65628552     0.14840
C789        C  0.06340577  0.77301944  0.58835829     0.36500
C790        C  0.38608706  0.62062812  0.62337535     0.36400
N791        N  0.09822773  0.80847984  0.58958790    -0.43850
N792        N  0.34772624  0.59995135  0.63815565    -0.43840
C793        C  0.99882081  0.79566165  0.94392958    -0.00260
C794        C  0.47220925  0.81887212  0.93807077    -0.12130
C795        C  0.98335375  0.85293364  0.90421744     0.01980
C796        C  0.01064478  0.85596398  0.86421206    -0.00340
C797        C  0.03300143  0.82866497  0.86516370    -0.12070
C798        C  0.03194295  0.80329063  0.90663498     0.01860
H799        H  0.44713807  0.81500618  0.96510338     0.14840
H800        H  0.05522385  0.83075229  0.83557243     0.14840
C801        C  0.07007064  0.79237394  0.91122013     0.36500
C802        C  0.47330875  0.88893515  0.91630488     0.36400
N803        N  0.10253239  0.78603906  0.91251954    -0.43850
N804        N  0.46664196  0.91739095  0.93142721    -0.43840
C805        C  0.00175354  0.70603521  0.96413646    -0.00260
C806        C  0.47445723  0.69396875  0.92017565    -0.12130
C807        C  0.48585544  0.67254252  0.88364813     0.01980
C808        C  0.01709377  0.65521609  0.89397992    -0.00340
C809        C  0.04462055  0.66790810  0.93621864    -0.12070
C810        C  0.04025805  0.69705255  0.96891463     0.01860
H811        H  0.44795812  0.70467749  0.91342799     0.14840
H812        H  0.07185834  0.65797408  0.94131489     0.14840
C813        C  0.08162809  0.72699928  0.99824718     0.36500
C814        C  0.47124851  0.67404957  0.83484593     0.36400
N815        N  0.11492925  0.75351501  0.51911443    -0.43850
N816        N  0.46140991  0.67603150  0.79519788    -0.43840
C817        C  0.99478709  0.23282046  0.00203245     0.00460
C818        C  0.49862435  0.27452364  0.49349308     0.00460
C819        C  0.73533751  0.50064525  0.50749053     0.00460
C820        C  0.77493758  0.49949701  0.48902340     0.00460
C821        C  0.72938671  0.24063636  0.49435669     0.00460
C822        C  0.76828064  0.28450057  0.49955459     0.00460
O823        O  0.53442550  0.13459490  0.31943431    -0.80230
O824        O  0.89692390  0.37169417  0.30910981    -0.81790
O825        O  0.90335208  0.01655336  0.34986637    -0.78810
O826        O  0.54124249  0.99802222  0.39642134    -0.77190
O827        O  0.60647283  0.00645591  0.35498491    -0.78980
O828        O  0.86600642  0.01383191  0.27799538    -0.79910
O829        O  0.91274544  0.42699346  0.36588316    -0.81240
O830        O  0.00142635  0.07973999  0.37767302    -0.81530
Eu831      Eu  0.97408160  0.00423590  0.34023550     2.39200
O832        O  0.00470494  0.46157051  0.30484735    -0.89040
O833        O  0.97070561  0.05217477  0.27903762    -0.92640
C834        C  0.51936882  0.12139762  0.36200847     1.02050
C835        C  0.88996590  0.38507500  0.34945972     1.01870
C836        C  0.86963367  0.01767855  0.32395151     1.01810
C837        C  0.58334122  0.99945697  0.39315536     0.99670
H838        H  0.88905436  0.44353487  0.28783818     0.29420
O839        O  0.92186427  0.46155670  0.27772423    -1.01430
H840        H  0.56700687  0.06835124  0.33626799     0.29450
O841        O  0.54989707  0.05111810  0.30807558    -1.03970
O842        O  0.96249172  0.37563221  0.17693616    -0.81190
O843        O  0.60183223  0.13784709  0.18274492    -0.80730
O844        O  0.84969978  0.43334954  0.18598455    -0.79170
O845        O  0.55163677  0.42933331  0.31878688    -0.82510
O846        O  0.64406382  0.08624818  0.31478976    -0.80360
O847        O  0.93643979  0.08656614  0.17923531    -0.79010
O848        O  0.97273627  0.01081497  0.09171529    -0.80530
O849        O  0.60014233  0.00369341  0.14317421    -0.82460
O850        O  0.91344516  0.97423918  0.14051309    -0.79200
O851        O  0.63531292  0.00298026  0.21517476    -0.81870
O852        O  0.87278118  0.37956443  0.20085873    -0.77610
O853        O  0.51222418  0.14069445  0.20408749    -0.77640
O854        O  0.62456143  0.14091091  0.29293093    -0.77280
O855        O  0.97827684  0.37185139  0.29578683    -0.80780
O856        O  0.49957416  0.43069054  0.12135797    -0.80210
O857        O  0.58281729  0.08197502  0.12577083    -0.78530
Eu858      Eu  0.95020648  0.41383146  0.24555709     2.39770
Eu859      Eu  0.54805095  0.10008307  0.24877439     2.39570
Eu860      Eu  0.91750236  0.00945154  0.21586552     2.38400
Eu861      Eu  0.58241540  0.00715334  0.27737728     2.39880
Eu862      Eu  0.52652974  0.00652620  0.15666965     2.39790
O863        O  0.58007672  0.05528895  0.21757917    -0.92950
O864        O  0.95044810  0.46373729  0.18844133    -0.91840
C865        C  0.98137721  0.38954826  0.13577156     1.02220
C866        C  0.60585067  0.12386256  0.14123778     1.00940
C867        C  0.84587149  0.39314997  0.17937096     1.00330
C868        C  0.51563218  0.38738575  0.32263837     1.02340
C869        C  0.65004982  0.12798350  0.31775061     1.01260
C870        C  0.97298055  0.12820447  0.17782626     1.00110
C871        C  0.92894836  0.99688337  0.10294362     1.00170
C872        C  0.63338877  0.00237638  0.16879640     1.02780
H873        H  0.49843162  0.07086257  0.15948059     0.30150
O874        O  0.49674812  0.05305546  0.18712505    -1.05110
H875        H  0.54174407  0.43857273  0.20645393     0.32200
O876        O  0.52914151  0.45784282  0.21725407    -1.07670
C877        C  0.78656436  0.31339513  0.04683550    -0.00260
C878        C  0.75498048  0.31949613  0.07717313    -0.12130
C879        C  0.77201835  0.34629998  0.12030109     0.01980
C880        C  0.82097680  0.36586182  0.13482872    -0.00340
C881        C  0.85186222  0.36131768  0.10382493    -0.12070
C882        C  0.83616894  0.33720576  0.06076262     0.01860
H883        H  0.71722864  0.30403639  0.06691479     0.14840
H884        H  0.89005510  0.37831802  0.11299279     0.14840
C885        C  0.87422331  0.33983605  0.03253382     0.36500
C886        C  0.73915151  0.35348861  0.14848724     0.36400
N887        N  0.90763353  0.34543962  0.01216928    -0.43850
N888        N  0.71284565  0.35970478  0.17081665    -0.43840
C889        C  0.63772559  0.15803803  0.10750817    -0.00260
C890        C  0.68749372  0.18252016  0.11691416    -0.12130
C891        C  0.71897223  0.20976910  0.08141862     0.01980
C892        C  0.70017044  0.21563374  0.03733837    -0.00340
C893        C  0.65053686  0.18963678  0.02841498    -0.12070
C894        C  0.61921406  0.16136059  0.06275579     0.01860
H895        H  0.70185083  0.17705447  0.15022408     0.14840
H896        H  0.63662655  0.19000101  0.99317597     0.14840
C897        C  0.56824995  0.13493082  0.05098663     0.36500
C898        C  0.76898148  0.22274374  0.08702820     0.36400
N899        N  0.52740624  0.11358305  0.04208247    -0.43850
N900        N  0.80881493  0.23178161  0.09018473    -0.43840
C901        C  0.85239388  0.35053197  0.37889891    -0.00260
C902        C  0.85856058  0.31632978  0.40126811    -0.12130
C903        C  0.82873482  0.29152345  0.43863127     0.01980
C904        C  0.79663128  0.30522936  0.45659512    -0.00340
C905        C  0.78721071  0.33560433  0.43029679    -0.12070
C906        C  0.81174255  0.35416759  0.38847067     0.01860
H907        H  0.88682403  0.30970795  0.39031529     0.14840
H908        H  0.75800465  0.34131369  0.44018778     0.14840
C909        C  0.78968077  0.36755673  0.35105784     0.36500
C910        C  0.83402167  0.25484576  0.46006273     0.36400
N911        N  0.77080355  0.37459659  0.31907044    -0.43850
N912        N  0.83836588  0.22552172  0.47715280    -0.43840
C913        C  0.68162744  0.16146140  0.35745630    -0.00260
C914        C  0.69393109  0.14445739  0.39818335    -0.12130
C915        C  0.70834787  0.16928981  0.44217804     0.01980
C916        C  0.71544204  0.21438580  0.44595956    -0.00340
C917        C  0.70478209  0.23223619  0.40478173    -0.12070
C918        C  0.68929517  0.20723724  0.36116948     0.01860
H919        H  0.68911319  0.11027142  0.39611427     0.14840
H920        H  0.70583916  0.26496323  0.40705992     0.14840
C921        C  0.68081647  0.22983030  0.32114414     0.36500
C922        C  0.70971723  0.14624218  0.48516082     0.36400
N923        N  0.67422510  0.24826838  0.28925695    -0.43850
N924        N  0.70468017  0.12597196  0.02388317    -0.43840
C925        C  0.81644992  0.49963365  0.01817539    -0.00260
C926        C  0.82369475  0.01303967  0.06554057    -0.12130
C927        C  0.85831352  0.01068076  0.09410228     0.01980
C928        C  0.89405188  0.00339078  0.07357306    -0.00340
C929        C  0.89150703  0.49503037  0.02580875    -0.12070
C930        C  0.85163397  0.48962885  0.99856126     0.01860
H931        H  0.80295321  0.02533377  0.08267688     0.14840
H932        H  0.91756717  0.48737794  0.01009837     0.14840
C933        C  0.84731780  0.46812944  0.45302039     0.36500
C934        C  0.85201633  0.01299187  0.14445221     0.36400
N935        N  0.84767478  0.45009746  0.41809388    -0.43850
N936        N  0.84220359  0.01458091  0.18361025    -0.43840
C937        C  0.72300718  0.50093483  0.05913741    -0.00260
C938        C  0.69027713  0.45948601  0.08092946    -0.12130
C939        C  0.66488584  0.45954042  0.12143183     0.01980
C940        C  0.67138540  0.00060782  0.14098950    -0.00340
C941        C  0.70752547  0.04191750  0.12238228    -0.12070
C942        C  0.73316918  0.04203356  0.08237611     0.01860
H943        H  0.68215499  0.42709624  0.06439556     0.14840
H944        H  0.71324800  0.07436196  0.13691414     0.14840
C945        C  0.76954072  0.08590427  0.06478654     0.36500
C946        C  0.62951607  0.41626397  0.14106387     0.36400
N947        N  0.79926169  0.12139059  0.05188710    -0.43850
N948        N  0.60116242  0.38190515  0.15745518    -0.43840
C949        C  0.83053269  0.01980447  0.34985936    -0.00260
C950        C  0.79003098  0.47785707  0.35916420    -0.12130
C951        C  0.76644694  0.47045044  0.40278566     0.01980
C952        C  0.78368743  0.50685782  0.43675565    -0.00340
C953        C  0.81861078  0.05091741  0.42303142    -0.12070
C954        C  0.84039203  0.05780053  0.37886281     0.01860
H955        H  0.78036425  0.44938872  0.33519780     0.14840
H956        H  0.83065520  0.07971597  0.44766121     0.14840
C957        C  0.86045845  0.10292897  0.35896992     0.36500
C958        C  0.73320858  0.42354795  0.41536501     0.36400
N959        N  0.87129874  0.13872807  0.34344457    -0.43740
N960        N  0.70714152  0.38560991  0.42498248    -0.43840
C961        C  0.61197999  0.49390462  0.43222933    -0.00260
C962        C  0.64765208  0.03446724  0.45417164    -0.12130
C963        C  0.69276535  0.03882925  0.46768881     0.01980
C964        C  0.69667488  0.50014918  0.47617935    -0.00340
C965        C  0.66026546  0.45886584  0.45819031    -0.12070
C966        C  0.62416666  0.45802530  0.42862870     0.01860
H967        H  0.64391132  0.06465190  0.45090687     0.14840
H968        H  0.66703548  0.43050981  0.45788812     0.14840
C969        C  0.62129455  0.43506836  0.38427773     0.36500
C970        C  0.73681535  0.07991789  0.45643918     0.36400
N971        N  0.62619782  0.41970171  0.34923321    -0.43850
N972        N  0.77071814  0.11214747  0.94807797    -0.43840
C973        C  0.98419654  0.35664833  0.10287047    -0.00260
C974        C  0.02450087  0.37390855  0.07377033    -0.12130
C975        C  0.02973183  0.34539776  0.04155732     0.01980
C976        C  0.99257878  0.30013651  0.03398085    -0.00340
C977        C  0.45155812  0.28136580  0.06383400    -0.12070
C978        C  0.44833032  0.30867176  0.09996218     0.01860
H979        H  0.05316816  0.40934123  0.07762404     0.14840
H980        H  0.42290141  0.24616522  0.05865293     0.14840
C981        C  0.41043795  0.28742737  0.13399997     0.36500
C982        C  0.07614794  0.36013294  0.52120513     0.36400
N983        N  0.38132412  0.27069259  0.16262031    -0.43850
N984        N  0.11204373  0.36708848  0.50527017    -0.43840
C985        C  0.98715921  0.21190228  0.05229256    -0.00260
C986        C  0.94244423  0.17321798  0.06298114    -0.12130
C987        C  0.93489586  0.15032395  0.10732261     0.01980
C988        C  0.97382542  0.16114641  0.13960547    -0.00340
C989        C  0.51665282  0.20164228  0.13246379    -0.12070
C990        C  0.52258551  0.22827475  0.09131093     0.01860
H991        H  0.91263695  0.16215084  0.03747747     0.14840
H992        H  0.54638725  0.21333660  0.15815363     0.14840
C993        C  0.56528369  0.27276621  0.09038163     0.36500
C994        C  0.88642025  0.12171990  0.12267399     0.36400
N995        N  0.60033932  0.30801853  0.09215042    -0.43850
N996        N  0.84804047  0.10115015  0.13742850    -0.43840
C997        C  0.50268788  0.29747152  0.44419429    -0.00260
C998        C  0.97524024  0.32050963  0.43895864    -0.12130
C999        C  0.48583781  0.35379223  0.40431558     0.01980
C1000       C  0.51356410  0.35748888  0.36444757    -0.00340
C1001       C  0.53689603  0.33105098  0.36558443    -0.12070
C1002       C  0.53602453  0.30562872  0.40697179     0.01860
H1003       H  0.95012127  0.31656650  0.46596267     0.14840
H1004       H  0.55941998  0.33361819  0.33609335     0.14840
C1005       C  0.57420169  0.29478078  0.41139390     0.36500
C1006       C  0.97566615  0.39016114  0.41700568     0.36400
N1007       N  0.60663636  0.28840813  0.41254238    -0.43850
N1008       N  0.96858580  0.41833482  0.43219318    -0.43840
C1009       C  0.50615138  0.20820604  0.46428771    -0.00260
C1010       C  0.97651319  0.19557960  0.42048930    -0.12130
C1011       C  0.98728812  0.17383390  0.38380737     0.01980
C1012       C  0.51863015  0.15541292  0.39425568    -0.00340
C1013       C  0.54764625  0.16905518  0.43554272    -0.12070
C1014       C  0.54440292  0.19886772  0.46827423     0.01860
H1015       H  0.95033986  0.20673261  0.41395680     0.14840
H1016       H  0.57482267  0.15898455  0.43986451     0.14840
C1017       C  0.58610934  0.22861673  0.49733606     0.36500
C1018       C  0.97237478  0.17542940  0.33514302     0.36400
N1019       N  0.61800669  0.25490897  0.02077553    -0.43850
N1020       N  0.96221100  0.17743896  0.29561194    -0.43840
C1021       C  0.99521865  0.23262254  0.50272659     0.00460
C1022       C  0.49556748  0.27302716  0.99364766     0.00460
C1023       C  0.73523936  0.50042049  0.00767128     0.00460
C1024       C  0.77498214  0.49952083  0.98922331     0.00460
C1025       C  0.73044516  0.24036324  0.99571749     0.00460
C1026       C  0.76920157  0.28434323  0.00053971     0.00460
O1027       O  0.53852047  0.13659254  0.82154781    -0.80230
O1028       O  0.89648095  0.37184021  0.80894115    -0.81790
O1029       O  0.90383430  0.01679068  0.85071417    -0.78810
O1030       O  0.54142904  0.99833405  0.89679475    -0.77190
O1031       O  0.60599468  0.00488662  0.85555040    -0.78980
O1032       O  0.86641570  0.01397302  0.77882241    -0.79910
O1033       O  0.91261328  0.42717618  0.86575911    -0.81240
O1034       O  0.00169547  0.08003827  0.87811064    -0.81530
Eu1035     Eu  0.97462596  0.00428254  0.84141281     2.39200
O1036       O  0.00434025  0.46169181  0.80432794    -0.89040
O1037       O  0.97112818  0.05190194  0.77987504    -0.92640
C1038       C  0.52233195  0.12295531  0.86371853     1.02050
C1039       C  0.88973624  0.38523339  0.84941591     1.01870
C1040       C  0.87011928  0.01794503  0.82475824     1.01810
C1041       C  0.58295834  0.99857360  0.89365833     0.99670
H1042       H  0.88868512  0.44369500  0.78759578     0.29420
O1043       O  0.92146450  0.46171493  0.77739291    -1.01430
H1044       H  0.56980266  0.06921990  0.83804089     0.29450
O1045       O  0.55262675  0.05241680  0.80965349    -1.03970
O1046       O  0.96218401  0.37594921  0.67643960    -0.81190
O1047       O  0.60435630  0.13710629  0.68215367    -0.80730
O1048       O  0.84934890  0.43358264  0.68538739    -0.79170
O1049       O  0.55124582  0.42856092  0.81901273    -0.82510
O1050       O  0.64597681  0.08544732  0.81617473    -0.80360
O1051       O  0.93632164  0.08615974  0.68002065    -0.79010
O1052       O  0.97229356  0.01041451  0.59282159    -0.80530
O1053       O  0.59952222  0.00323133  0.64320711    -0.82460
O1054       O  0.91252684  0.97392708  0.64123916    -0.79200
O1055       O  0.63537862  0.00281867  0.71495814    -0.81870
O1056       O  0.87248719  0.37978882  0.69990189    -0.77610
O1057       O  0.51860872  0.14462369  0.70494725    -0.77640
O1058       O  0.62996193  0.14205420  0.79303310    -0.77280
O1059       O  0.97782797  0.37194738  0.79517260    -0.80780
O1060       O  0.49981071  0.43059236  0.62129408    -0.80210
O1061       O  0.58005584  0.08120456  0.62379624    -0.78530
Eu1062     Eu  0.94969455  0.41395006  0.74511059     2.39770
Eu1063     Eu  0.55287251  0.10262585  0.75081766     2.39570
Eu1064     Eu  0.91764866  0.00919527  0.71684067     2.38400
Eu1065     Eu  0.58310689  0.00702406  0.77794959     2.39880
Eu1066     Eu  0.52598788  0.00631514  0.65736192     2.39790
O1067       O  0.58076198  0.05489354  0.71825530    -0.92950
O1068       O  0.95025507  0.46407325  0.68810949    -0.91840
C1069       C  0.98124763  0.38984782  0.63533902     1.02220
C1070       C  0.60538047  0.12289302  0.63966996     1.00940
C1071       C  0.84551661  0.39339688  0.67856681     1.00330
C1072       C  0.51507128  0.38665482  0.82270225     1.02340
C1073       C  0.65365139  0.12781663  0.81872522     1.01260
C1074       C  0.97293065  0.12775560  0.67848359     1.00110
C1075       C  0.92841168  0.99653726  0.60371454     1.00170
C1076       C  0.63309097  0.00213582  0.66856214     1.02780
H1077       H  0.50909510  0.07693995  0.66492729     0.30150
O1078       O  0.50274358  0.05572879  0.69059933    -1.05110
H1079       H  0.54181393  0.43824468  0.70638039     0.32200
O1080       O  0.52919005  0.45749278  0.71718891    -1.07670
C1081       C  0.78582570  0.31357361  0.54593888    -0.00260
C1082       C  0.75421989  0.31912169  0.57678771    -0.12130
C1083       C  0.77133943  0.34588879  0.61996103     0.01980
C1084       C  0.82051436  0.36620450  0.63395561    -0.00340
C1085       C  0.85140537  0.36221117  0.60251347    -0.12070
C1086       C  0.83557871  0.33795129  0.55950729     0.01860
H1087       H  0.71633186  0.30316715  0.56695665     0.14840
H1088       H  0.88968224  0.37958834  0.61141221     0.14840
C1089       C  0.87368586  0.34073751  0.53122584     0.36500
C1090       C  0.73828069  0.35216188  0.64882329     0.36400
N1091       N  0.90716907  0.34637048  0.51096289    -0.43850
N1092       N  0.71180165  0.35760548  0.67172932    -0.43840
C1093       C  0.63693412  0.15674233  0.60555511    -0.00260
C1094       C  0.68661535  0.18210829  0.61528060    -0.12130
C1095       C  0.71801600  0.20970648  0.57995609     0.01980
C1096       C  0.69913937  0.21507203  0.53570186    -0.00340
C1097       C  0.64968597  0.18774220  0.52630707    -0.12070
C1098       C  0.61842700  0.15940877  0.56056329     0.01860
H1099       H  0.70106848  0.17716301  0.64880038     0.14840
H1100       H  0.63575781  0.18737232  0.49089406     0.14840
C1101       C  0.56753661  0.13271331  0.54853487     0.36500
C1102       C  0.76817999  0.22340274  0.58592116     0.36400
N1103       N  0.52676099  0.11120388  0.53936357    -0.43850
N1104       N  0.80816061  0.23299109  0.58936742    -0.43840
C1105       C  0.85244571  0.35070445  0.87924108    -0.00260
C1106       C  0.85869794  0.31638127  0.90123711    -0.12130
C1107       C  0.82931135  0.29161627  0.93892033     0.01980
C1108       C  0.79746878  0.30535537  0.95753174    -0.00340
C1109       C  0.78818991  0.33616548  0.93186084    -0.12070
C1110       C  0.81214017  0.35461759  0.88971163     0.01860
H1111       H  0.88663739  0.30955619  0.88966293     0.14840
H1112       H  0.75915941  0.34196628  0.94224794     0.14840
C1113       C  0.78940428  0.36767247  0.85268359     0.36500
C1114       C  0.83459374  0.25474162  0.95982365     0.36400
N1115       N  0.76989861  0.37436245  0.82102446    -0.43850
N1116       N  0.83888844  0.22523507  0.97649876    -0.43840
C1117       C  0.68474025  0.16078102  0.85890952    -0.00260
C1118       C  0.69421248  0.14298699  0.90065134    -0.12130
C1119       C  0.70772841  0.16778756  0.94469108     0.01980
C1120       C  0.71642492  0.21351731  0.94766763    -0.00340
C1121       C  0.70797023  0.23184316  0.90559160    -0.12070
C1122       C  0.69392714  0.20708461  0.86184564     0.01860
H1123       H  0.68794584  0.10831374  0.89904735     0.14840
H1124       H  0.70974263  0.26489185  0.90705691     0.14840
C1125       C  0.68853396  0.23052492  0.82079552     0.36500
C1126       C  0.70693489  0.14424017  0.98808186     0.36400
N1127       N  0.68443589  0.24963498  0.78808553    -0.43850
N1128       N  0.70895581  0.12860483  0.52099867    -0.43840
C1129       C  0.81637958  0.49958738  0.51795363    -0.00260
C1130       C  0.82363748  0.01321341  0.56566531    -0.12130
C1131       C  0.85800249  0.01056754  0.59440570     0.01980
C1132       C  0.89374160  0.00316524  0.57404781    -0.00340
C1133       C  0.89138632  0.49493863  0.52558367    -0.12070
C1134       C  0.85144541  0.48939505  0.49838380     0.01860
H1135       H  0.80292569  0.02561239  0.58270943     0.14840
H1136       H  0.91738864  0.48718311  0.50990991     0.14840
C1137       C  0.84766123  0.46866912  0.95305317     0.36500
C1138       C  0.85152675  0.01267931  0.64477775     0.36400
N1139       N  0.84811557  0.45087651  0.91799200    -0.43850
N1140       N  0.84180319  0.01409430  0.68401167    -0.43840
C1141       C  0.72309822  0.50105115  0.55899114    -0.00260
C1142       C  0.69066240  0.45953042  0.58084563    -0.12130
C1143       C  0.66522173  0.45938347  0.62140064     0.01980
C1144       C  0.67121749  0.00079779  0.64047174    -0.00340
C1145       C  0.70689413  0.04221739  0.62153942    -0.12070
C1146       C  0.73284845  0.04244201  0.58173263     0.01860
H1147       H  0.68286242  0.42722263  0.56437099     0.14840
H1148       H  0.71218919  0.07459334  0.63581839     0.14840
C1149       C  0.76933240  0.08629122  0.56421116     0.36500
C1150       C  0.63004957  0.41598696  0.64098343     0.36400
N1151       N  0.79923498  0.12167555  0.55128707    -0.43850
N1152       N  0.60185737  0.38147715  0.65724688    -0.43840
C1153       C  0.83087920  0.01995830  0.85051797    -0.00260
C1154       C  0.78983372  0.47803299  0.85918928    -0.12130
C1155       C  0.76633715  0.47059726  0.90289219     0.01980
C1156       C  0.78372984  0.50694405  0.93694673    -0.00340
C1157       C  0.81803312  0.05077226  0.92340632    -0.12070
C1158       C  0.84032474  0.05785882  0.87950585     0.01860
H1159       H  0.78001881  0.44962566  0.83508739     0.14840
H1160       H  0.82965033  0.07950540  0.94804592     0.14840
C1161       C  0.86035184  0.10304259  0.85976171     0.36500
C1162       C  0.73290927  0.42371982  0.91539890     0.36400
N1163       N  0.87111781  0.13890308  0.84444951    -0.43740
N1164       N  0.70674818  0.38577522  0.92492467    -0.43840
C1165       C  0.61145134  0.49310643  0.93273792    -0.00260
C1166       C  0.64630560  0.03309751  0.95567311    -0.12130
C1167       C  0.69166725  0.03793936  0.96908781     0.01980
C1168       C  0.69641874  0.49964660  0.97639918    -0.00340
C1169       C  0.65960650  0.45810430  0.95935729    -0.12070
C1170       C  0.62335105  0.45699283  0.92978464     0.01860
H1171       H  0.64192870  0.06297252  0.95312752     0.14840
H1172       H  0.66617629  0.42959688  0.95967706     0.14840
C1173       C  0.62006675  0.43338346  0.88579263     0.36500
C1174       C  0.73552495  0.07945089  0.95837936     0.36400
N1175       N  0.62476253  0.41757101  0.85097312    -0.43850
N1176       N  0.77204774  0.11238680  0.44577106    -0.43840
C1177       C  0.98421675  0.35687898  0.60266692    -0.00260
C1178       C  0.02491230  0.37391377  0.57413017    -0.12130
C1179       C  0.03038717  0.34520422  0.54236922     0.01980
C1180       C  0.99312554  0.30001217  0.53464971    -0.00340
C1181       C  0.45404777  0.28176152  0.56381129    -0.12070
C1182       C  0.45015947  0.30870417  0.59992863     0.01860
H1183       H  0.05364273  0.40930560  0.57809338     0.14840
H1184       H  0.42585878  0.24636800  0.55858782     0.14840
C1185       C  0.41221940  0.28693115  0.63384118     0.36500
C1186       C  0.07529083  0.36056989  0.01989434     0.36400
N1187       N  0.38305033  0.26974902  0.66234055    -0.43850
N1188       N  0.11105669  0.36769140  0.00352449    -0.43840
C1189       C  0.98742255  0.21167563  0.55300204    -0.00260
C1190       C  0.94262303  0.17306345  0.56363551    -0.12130
C1191       C  0.93493871  0.15006503  0.60794283     0.01980
C1192       C  0.97380773  0.16074956  0.64028233    -0.00340
C1193       C  0.52181132  0.20584494  0.63321533    -0.12070
C1194       C  0.52768427  0.23146155  0.59114152     0.01860
H1195       H  0.91286359  0.16210428  0.53809121     0.14840
H1196       H  0.55143204  0.21831583  0.65912602     0.14840
C1197       C  0.57076815  0.27556347  0.58889445     0.36500
C1198       C  0.88638963  0.12152186  0.62314780     0.36400
N1199       N  0.60620164  0.31051326  0.58950914    -0.43850
N1200       N  0.84788792  0.10103021  0.63763998    -0.43840
C1201       C  0.50031216  0.29616060  0.94433066    -0.00260
C1202       C  0.97457684  0.32042091  0.93817726    -0.12130
C1203       C  0.48468537  0.35320300  0.90430610     0.01980
C1204       C  0.51247429  0.35660778  0.86459006    -0.00340
C1205       C  0.53521151  0.32963973  0.86589245    -0.12070
C1206       C  0.53388187  0.30414426  0.90737943     0.01860
H1207       H  0.94932051  0.31627149  0.96507408     0.14840
H1208       H  0.55778186  0.33196225  0.83654024     0.14840
C1209       C  0.57204923  0.29332026  0.91230696     0.36500
C1210       C  0.97534283  0.39032162  0.91670611     0.36400
N1211       N  0.60452199  0.28700932  0.91391387    -0.43850
N1212       N  0.96842852  0.41851579  0.93214417    -0.43840
C1213       C  0.50385959  0.20696027  0.96511208    -0.00260
C1214       C  0.97620850  0.19554558  0.91993787    -0.12130
C1215       C  0.98709231  0.17371443  0.88343550     0.01980
C1216       C  0.52016182  0.15632057  0.89564362    -0.00340
C1217       C  0.54750788  0.16938712  0.93791741    -0.12070
C1218       C  0.54262289  0.19839445  0.97035331     0.01860
H1219       H  0.94977394  0.20636571  0.91335749     0.14840
H1220       H  0.57483774  0.15964519  0.94325880     0.14840
C1221       C  0.58359204  0.22832618  0.00016786     0.36500
C1222       C  0.97179850  0.17464585  0.83475604     0.36400
N1223       N  0.62082065  0.25524903  0.51750290    -0.43850
N1224       N  0.96129250  0.17608659  0.79520795    -0.43840
C1225       C  0.99372333  0.73185756  0.00265807     0.00460
C1226       C  0.49612688  0.77302864  0.49332191     0.00460
C1227       C  0.73478381  0.00010687  0.50767742     0.00460
C1228       C  0.77445010  0.99935350  0.48896623     0.00460
C1229       C  0.72765826  0.74093568  0.49463889     0.00460
C1230       C  0.76644226  0.78492194  0.49952472     0.00460
O1231       O  0.53312349  0.63416902  0.31914140    -0.80230
O1232       O  0.89371220  0.87107681  0.30772356    -0.81790
O1233       O  0.90492156  0.51696344  0.35069993    -0.78810
O1234       O  0.54140555  0.49821624  0.39572341    -0.77190
O1235       O  0.60741957  0.50845216  0.35442291    -0.78980
O1236       O  0.86739480  0.51367200  0.27877327    -0.79910
O1237       O  0.91023363  0.92641194  0.36465039    -0.81240
O1238       O  0.00248468  0.58051433  0.37828198    -0.81530
Eu1239     Eu  0.97605436  0.50500455  0.34142075     2.39200
O1240       O  0.00215882  0.96050120  0.30343866    -0.89040
O1241       O  0.97211212  0.55237818  0.27990800    -0.92640
C1242       C  0.51828267  0.62100891  0.36181697     1.02050
C1243       C  0.88703737  0.88451950  0.34818196     1.01870
C1244       C  0.87106719  0.51779205  0.32469025     1.01810
C1245       C  0.58398248  0.50052458  0.39247961     0.99670
H1246       H  0.88686680  0.94349399  0.28660654     0.29420
O1247       O  0.91970262  0.96130751  0.27650177    -1.01430
H1248       H  0.56637328  0.56858741  0.33586104     0.29450
O1249       O  0.54939636  0.55132535  0.30764286    -1.03970
O1250       O  0.95962646  0.87490126  0.17566199    -0.81190
O1251       O  0.60078359  0.63772129  0.18203730    -0.80730
O1252       O  0.84779675  0.93402178  0.18458895    -0.79170
O1253       O  0.55171649  0.92868369  0.31883698    -0.82510
O1254       O  0.64349323  0.58670359  0.31476842    -0.80360
O1255       O  0.93666018  0.58579608  0.18001986    -0.79010
O1256       O  0.97350989  0.51122672  0.09310865    -0.80530
O1257       O  0.60011024  0.50390640  0.14278840    -0.82460
O1258       O  0.91359796  0.47404943  0.14124810    -0.79200
O1259       O  0.63546412  0.50375549  0.21483438    -0.81870
O1260       O  0.87016971  0.87967349  0.19910707    -0.77610
O1261       O  0.51148088  0.64051475  0.20342292    -0.77640
O1262       O  0.62384224  0.64119891  0.29266928    -0.77280
O1263       O  0.97419990  0.87014675  0.29450682    -0.80780
O1264       O  0.49989108  0.93116290  0.12074565    -0.80210
O1265       O  0.58197384  0.58155083  0.12544924    -0.78530
Eu1266     Eu  0.94732580  0.91305251  0.24422400     2.39770
Eu1267     Eu  0.54743932  0.60012552  0.24831242     2.39570
Eu1268     Eu  0.91893093  0.50919145  0.21691379     2.38400
Eu1269     Eu  0.58225859  0.50762282  0.27708872     2.39880
Eu1270     Eu  0.52629158  0.50619164  0.15661862     2.39790
O1271       O  0.57979257  0.55552022  0.21722901    -0.92950
O1272       O  0.94856132  0.96360707  0.18740357    -0.91840
C1273       C  0.97891442  0.88880495  0.13466770     1.02220
C1274       C  0.60466915  0.62353205  0.14059903     1.00940
C1275       C  0.84354335  0.89367209  0.17777928     1.00330
C1276       C  0.51543209  0.88682192  0.32239378     1.02340
C1277       C  0.64925617  0.62834695  0.31773941     1.01260
C1278       C  0.97295869  0.62755972  0.17849833     1.00110
C1279       C  0.92948780  0.49695661  0.10390729     1.00170
C1280       C  0.63356666  0.50301701  0.16843388     1.02780
H1281       H  0.49823956  0.57058365  0.15875210     0.30150
O1282       O  0.49651555  0.55286415  0.18648888    -1.05110
H1283       H  0.54191350  0.93857220  0.20603297     0.32200
O1284       O  0.52947359  0.95792440  0.21699425    -1.07670
C1285       C  0.78378670  0.81366026  0.04547331    -0.00260
C1286       C  0.75216944  0.81917272  0.07632727    -0.12130
C1287       C  0.76931709  0.84604549  0.11940337     0.01980
C1288       C  0.81856974  0.86669702  0.13312525    -0.00340
C1289       C  0.84948675  0.86283643  0.10161710    -0.12070
C1290       C  0.83358358  0.83823458  0.05883587     0.01860
H1291       H  0.71423153  0.80301316  0.06662831     0.14840
H1292       H  0.88779297  0.88035435  0.11042194     0.14840
C1293       C  0.87161376  0.84058753  0.03073361     0.36500
C1294       C  0.73620143  0.85201902  0.14848538     0.36400
N1295       N  0.90502807  0.84578441  0.01064012    -0.43850
N1296       N  0.70966514  0.85720080  0.17157896    -0.43840
C1297       C  0.63593563  0.65753030  0.10653118    -0.00260
C1298       C  0.68567110  0.68273792  0.11576001    -0.12130
C1299       C  0.71671051  0.71000570  0.08005782     0.01980
C1300       C  0.69742191  0.71517185  0.03595557    -0.00340
C1301       C  0.64786525  0.68806203  0.02704324    -0.12070
C1302       C  0.61698533  0.65991127  0.06167382     0.01860
H1303       H  0.70040068  0.67787030  0.14913928     0.14840
H1304       H  0.63355441  0.68767348  0.99175199     0.14840
C1305       C  0.56601540  0.63285240  0.05014393     0.36500
C1306       C  0.76689939  0.72364385  0.08551405     0.36400
N1307       N  0.52518342  0.61108424  0.04136028    -0.43850
N1308       N  0.80689249  0.73320515  0.08849763    -0.43840
C1309       C  0.84950625  0.85008280  0.37783733    -0.00260
C1310       C  0.85577733  0.81599154  0.40032617    -0.12130
C1311       C  0.82650533  0.79168253  0.43822186     0.01980
C1312       C  0.79457996  0.80553475  0.45636192    -0.00340
C1313       C  0.78495889  0.83574699  0.42996630    -0.12070
C1314       C  0.80907920  0.85396560  0.38783071     0.01860
H1315       H  0.88373994  0.80908412  0.38904553     0.14840
H1316       H  0.75589137  0.84160021  0.44005445     0.14840
C1317       C  0.78681541  0.86737921  0.35064828     0.36500
C1318       C  0.83214322  0.75530376  0.45991880     0.36400
N1319       N  0.76772933  0.87445011  0.31887450    -0.43850
N1320       N  0.83680036  0.72623997  0.47722944    -0.43840
C1321       C  0.68036173  0.66171961  0.35773228    -0.00260
C1322       C  0.69252221  0.64470116  0.39858199    -0.12130
C1323       C  0.70676784  0.66953346  0.44259615     0.01980
C1324       C  0.71356471  0.71452294  0.44634886    -0.00340
C1325       C  0.70280109  0.73226570  0.40515891    -0.12070
C1326       C  0.68770038  0.70737663  0.36148182     0.01860
H1327       H  0.68784379  0.61055545  0.39657867     0.14840
H1328       H  0.70360583  0.76487895  0.40744361     0.14840
C1329       C  0.67929867  0.72998055  0.32141554     0.36500
C1330       C  0.70855821  0.64668573  0.48558881     0.36400
N1331       N  0.67276790  0.74843049  0.28950115    -0.43850
N1332       N  0.70750122  0.62851530  0.02153380    -0.43840
C1333       C  0.81572796  0.99918006  0.01773764    -0.00260
C1334       C  0.82353626  0.51224094  0.06638632    -0.12130
C1335       C  0.85828608  0.50998520  0.09495539     0.01980
C1336       C  0.89465365  0.50361969  0.07441245    -0.00340
C1337       C  0.89024856  0.99381142  0.02513576    -0.12070
C1338       C  0.85027476  0.98837035  0.99810987     0.01860
H1339       H  0.80200118  0.52341144  0.08389626     0.14840
H1340       H  0.91588626  0.98555596  0.00946739     0.14840
C1341       C  0.84604477  0.96750644  0.45278292     0.36500
C1342       C  0.85177579  0.51170856  0.14536899     0.36400
N1343       N  0.84611440  0.94979594  0.41751891    -0.43850
N1344       N  0.84203759  0.51287315  0.18464427    -0.43840
C1345       C  0.72266630  0.00009484  0.05960268    -0.00260
C1346       C  0.68971675  0.95860982  0.08119152    -0.12130
C1347       C  0.66426718  0.95865062  0.12163279     0.01980
C1348       C  0.67173755  0.50146827  0.14060121    -0.00340
C1349       C  0.70775232  0.54279142  0.12180851    -0.12070
C1350       C  0.73351399  0.54287483  0.08186222     0.01860
H1351       H  0.68127194  0.92622282  0.06438899     0.14840
H1352       H  0.71339800  0.57523947  0.13624015     0.14840
C1353       C  0.77014343  0.58665895  0.06437335     0.36500
C1354       C  0.62846531  0.91535522  0.14086227     0.36400
N1355       N  0.80009941  0.62204221  0.05151078    -0.43850
N1356       N  0.59976621  0.88094465  0.15686883    -0.43840
C1357       C  0.83168269  0.51964037  0.35036407    -0.00260
C1358       C  0.78863020  0.97820225  0.35863006    -0.12130
C1359       C  0.76524224  0.97080884  0.40239610     0.01980
C1360       C  0.78317217  0.00696636  0.43671009    -0.00340
C1361       C  0.81858588  0.55093128  0.42279455    -0.12070
C1362       C  0.84080195  0.55773944  0.37885977     0.01860
H1363       H  0.77844166  0.94984189  0.33434949     0.14840
H1364       H  0.82995730  0.57988443  0.44707010     0.14840
C1365       C  0.86023830  0.60261461  0.35846096     0.36500
C1366       C  0.73116793  0.92402134  0.41456180     0.36400
N1367       N  0.87053526  0.63814097  0.34251568    -0.43740
N1368       N  0.70447601  0.88610606  0.42370795    -0.43840
C1369       C  0.61119629  0.99323936  0.43323736    -0.00260
C1370       C  0.64767990  0.53475051  0.45451164    -0.12130
C1371       C  0.69288984  0.53942742  0.46833521     0.01980
C1372       C  0.69591230  0.99938605  0.47668675    -0.00340
C1373       C  0.65844097  0.95772881  0.46076444    -0.12070
C1374       C  0.62239321  0.95665871  0.43095834     0.01860
H1375       H  0.64349191  0.56473859  0.45206551     0.14840
H1376       H  0.66475994  0.92910141  0.46147888     0.14840
C1377       C  0.61942016  0.93299458  0.38710119     0.36500
C1378       C  0.73675299  0.58085681  0.45744108     0.36400
N1379       N  0.62446898  0.91718516  0.35246202    -0.43850
N1380       N  0.77158599  0.61309535  0.94697956    -0.43840
C1381       C  0.98196248  0.85583361  0.10211360    -0.00260
C1382       C  0.02267780  0.87292423  0.07360021    -0.12130
C1383       C  0.02826374  0.84423670  0.04194334     0.01980
C1384       C  0.99112992  0.79897426  0.03437974    -0.00340
C1385       C  0.45034444  0.78115963  0.06332286    -0.12070
C1386       C  0.44770578  0.80882297  0.09944181     0.01860
H1387       H  0.05133572  0.90835845  0.07747673     0.14840
H1388       H  0.42152191  0.74597743  0.05851736     0.14840
C1389       C  0.41030161  0.78786362  0.13401609     0.36500
C1390       C  0.07114999  0.85939640  0.51860561     0.36400
N1391       N  0.38158932  0.77132962  0.16303725    -0.43850
N1392       N  0.10652660  0.86632716  0.50149175    -0.43840
C1393       C  0.98626784  0.71105243  0.05298478    -0.00260
C1394       C  0.94167223  0.67225226  0.06377984    -0.12130
C1395       C  0.93434269  0.64933408  0.10810112     0.01980
C1396       C  0.97340045  0.66034499  0.14029211    -0.00340
C1397       C  0.51561265  0.70093225  0.13111149    -0.12070
C1398       C  0.52106601  0.72746034  0.08998230     0.01860
H1399       H  0.91179661  0.66104831  0.03833924     0.14840
H1400       H  0.54565316  0.71263151  0.15642802     0.14840
C1401       C  0.56381444  0.77189246  0.08872241     0.36500
C1402       C  0.88591773  0.62045206  0.12347017     0.36400
N1403       N  0.59898576  0.80705304  0.09037124    -0.43850
N1404       N  0.84750902  0.59965902  0.13811403    -0.43840
C1405       C  0.50090408  0.79622529  0.44400137    -0.00260
C1406       C  0.97110650  0.81892576  0.43781811    -0.12130
C1407       C  0.48540209  0.85342881  0.40414493     0.01980
C1408       C  0.51275428  0.85656054  0.36415419    -0.00340
C1409       C  0.53516359  0.82927919  0.36518684    -0.12070
C1410       C  0.53394584  0.80373281  0.40663563     0.01860
H1411       H  0.94579712  0.81477909  0.46472349     0.14840
H1412       H  0.55743649  0.83140309  0.33562663     0.14840
C1413       C  0.57157038  0.79211371  0.41088589     0.36500
C1414       C  0.97196263  0.88892639  0.41629359     0.36400
N1415       N  0.60361176  0.78515102  0.41177840    -0.43850
N1416       N  0.96520489  0.91726748  0.43159920    -0.43840
C1417       C  0.50234809  0.70599778  0.46421161    -0.00260
C1418       C  0.97476133  0.69459360  0.41998547    -0.12130
C1419       C  0.98643399  0.67336351  0.38349859     0.01980
C1420       C  0.51693187  0.65468921  0.39408126    -0.00340
C1421       C  0.54463374  0.66736200  0.43620990    -0.12070
C1422       C  0.54066970  0.69677154  0.46886370     0.01860
H1423       H  0.94807300  0.70505282  0.41318294     0.14840
H1424       H  0.57172733  0.65723430  0.44118045     0.14840
C1425       C  0.58229706  0.72687995  0.49781403     0.36500
C1426       C  0.97165571  0.67461925  0.33469746     0.36400
N1427       N  0.61487834  0.75257093  0.01869893    -0.43850
N1428       N  0.96161748  0.67638532  0.29506556    -0.43840
C1429       C  0.99240783  0.73177414  0.50209683     0.00460
C1430       C  0.49338364  0.77204008  0.99264144     0.00460
C1431       C  0.73455136  0.99967712  0.00803018     0.00460
C1432       C  0.77412976  0.99889436  0.98913470     0.00460
C1433       C  0.72735185  0.74045467  0.99439691     0.00460
C1434       C  0.76617070  0.78436004  0.99929774     0.00460
O1435       O  0.53285248  0.63365589  0.81933460    -0.80230
O1436       O  0.89414514  0.87101365  0.80861013    -0.81790
O1437       O  0.90477038  0.51716387  0.85044188    -0.78810
O1438       O  0.54116628  0.49772018  0.89591789    -0.77190
O1439       O  0.60680365  0.50688706  0.85467081    -0.78980
O1440       O  0.86707991  0.51379542  0.77859725    -0.79910
O1441       O  0.91087201  0.92632269  0.86567090    -0.81240
O1442       O  0.00246455  0.58057060  0.87801318    -0.81530
Eu1443     Eu  0.97582234  0.50512240  0.84103828     2.39200
O1444       O  0.00247120  0.96036387  0.80455455    -0.89040
O1445       O  0.97181310  0.55254361  0.77957991    -0.92640
C1446       C  0.51776836  0.62045069  0.86194687     1.02050
C1447       C  0.88761516  0.88446153  0.84909765     1.01870
C1448       C  0.87084047  0.51794297  0.82452403     1.01810
C1449       C  0.58349871  0.49950133  0.89276059     0.99670
H1450       H  0.88732621  0.94349255  0.78781004     0.29420
O1451       O  0.92014378  0.96127186  0.77764267    -1.01430
H1452       H  0.56643543  0.56808456  0.83617629     0.29450
O1453       O  0.54949432  0.55085670  0.80792171    -1.03970
O1454       O  0.95920849  0.87428366  0.67662501    -0.81190
O1455       O  0.60092994  0.63750408  0.68229018    -0.80730
O1456       O  0.84790570  0.93368077  0.68572168    -0.79170
O1457       O  0.55108491  0.92809644  0.81867139    -0.82510
O1458       O  0.64348407  0.58603902  0.81486378    -0.80360
O1459       O  0.93647850  0.58613709  0.67972923    -0.79010
O1460       O  0.97352662  0.51144863  0.59263174    -0.80530
O1461       O  0.60024339  0.50365984  0.64286693    -0.82460
O1462       O  0.91383493  0.47434528  0.64097921    -0.79200
O1463       O  0.63537211  0.50310583  0.71492807    -0.81870
O1464       O  0.87049212  0.87942805  0.69988871    -0.77610
O1465       O  0.51175565  0.64020400  0.70384703    -0.77640
O1466       O  0.62398994  0.64063211  0.79270252    -0.77280
O1467       O  0.97534027  0.87066907  0.79562199    -0.80780
O1468       O  0.50304931  0.93179657  0.62186128    -0.80210
O1469       O  0.58226185  0.58145550  0.62560116    -0.78530
Eu1470     Eu  0.94762090  0.91290834  0.74527915     2.39770
Eu1471     Eu  0.54755401  0.59968892  0.74857613     2.39570
Eu1472     Eu  0.91860333  0.50941404  0.71656075     2.38400
Eu1473     Eu  0.58217227  0.50695971  0.77726988     2.39880
Eu1474     Eu  0.52646583  0.50600882  0.65664670     2.39790
O1475       O  0.57983744  0.55503827  0.71749347    -0.92950
O1476       O  0.94834691  0.96311120  0.68836156    -0.91840
C1477       C  0.97795747  0.88817088  0.63540940     1.02220
C1478       C  0.60491492  0.62342445  0.64081842     1.00940
C1479       C  0.84374475  0.89338178  0.67870267     1.00330
C1480       C  0.51399548  0.88670231  0.82228069     1.02340
C1481       C  0.64935990  0.62772926  0.81774417     1.01260
C1482       C  0.97276438  0.62790972  0.67808680     1.00110
C1483       C  0.92956473  0.49721156  0.60358417     1.00170
C1484       C  0.63359194  0.50257934  0.66851574     1.02780
H1485       H  0.49856915  0.57041750  0.65888178     0.30150
O1486       O  0.49672056  0.55262823  0.68659617    -1.05110
H1487       H  0.54178123  0.93869401  0.70684477     0.32200
O1488       O  0.52959345  0.95829745  0.71763643    -1.07670
C1489       C  0.78407584  0.81415665  0.54579462    -0.00260
C1490       C  0.75238577  0.81914117  0.57703569    -0.12130
C1491       C  0.76947729  0.84566198  0.62034488     0.01980
C1492       C  0.81879930  0.86659632  0.63389401    -0.00340
C1493       C  0.84978540  0.86330727  0.60200890    -0.12070
C1494       C  0.83390538  0.83899595  0.55902195     0.01860
H1495       H  0.71439692  0.80276604  0.56751279     0.14840
H1496       H  0.88811089  0.88103559  0.61069173     0.14840
C1497       C  0.87196754  0.84182295  0.53061037     0.36500
C1498       C  0.73619346  0.85090639  0.64989460     0.36400
N1499       N  0.90538721  0.84734860  0.51029356    -0.43850
N1500       N  0.70949961  0.85546797  0.67337874    -0.43840
C1501       C  0.63621449  0.65753674  0.60677632    -0.00260
C1502       C  0.68594705  0.68294525  0.61606341    -0.12130
C1503       C  0.71700276  0.71037218  0.58040365     0.01980
C1504       C  0.69774009  0.71544096  0.53622791    -0.00340
C1505       C  0.64822187  0.68801664  0.52725457    -0.12070
C1506       C  0.61732071  0.65986286  0.56186733     0.01860
H1507       H  0.70068757  0.67817056  0.64948107     0.14840
H1508       H  0.63394194  0.68737763  0.49190827     0.14840
C1509       C  0.56637550  0.63278876  0.55023591     0.36500
C1510       C  0.76726418  0.72436939  0.58602962     0.36400
N1511       N  0.52556858  0.61104434  0.54132063    -0.43850
N1512       N  0.80735180  0.73428733  0.58917881    -0.43840
C1513       C  0.85002176  0.85001690  0.87852327    -0.00260
C1514       C  0.85617039  0.81581942  0.90090678    -0.12130
C1515       C  0.82641255  0.79111659  0.93832114     0.01980
C1516       C  0.79436938  0.80490416  0.95625549    -0.00340
C1517       C  0.78490357  0.83522086  0.92989994    -0.12070
C1518       C  0.80938040  0.85368023  0.88803671     0.01860
H1519       H  0.88439168  0.80914251  0.88994097     0.14840
H1520       H  0.75575129  0.84101005  0.93981495     0.14840
C1521       C  0.78747002  0.86734492  0.85072024     0.36500
C1522       C  0.83176789  0.75451598  0.95985571     0.36400
N1523       N  0.76870567  0.87469919  0.81885947    -0.43850
N1524       N  0.83620939  0.72527664  0.97702397    -0.43840
C1525       C  0.68050680  0.66113390  0.85764097    -0.00260
C1526       C  0.69242484  0.64409661  0.89860776    -0.12130
C1527       C  0.70644578  0.66891758  0.94261596     0.01980
C1528       C  0.71332117  0.71394555  0.94620450    -0.00340
C1529       C  0.70285618  0.73172869  0.90487218    -0.12070
C1530       C  0.68796417  0.70683564  0.86121079     0.01860
H1531       H  0.68771726  0.60994454  0.89666080     0.14840
H1532       H  0.70374516  0.76438575  0.90701065     0.14840
C1533       C  0.67990667  0.72947877  0.82096311     0.36500
C1534       C  0.70798250  0.64603091  0.98568403     0.36400
N1535       N  0.67365214  0.74795763  0.78890318    -0.43850
N1536       N  0.70825588  0.62926609  0.52145192    -0.43840
C1537       C  0.81588583  0.99950525  0.51779073    -0.00260
C1538       C  0.82364748  0.51250908  0.56607283    -0.12130
C1539       C  0.85837005  0.51025379  0.59466693     0.01980
C1540       C  0.89465758  0.50376556  0.57414076    -0.00340
C1541       C  0.89014594  0.99369308  0.52558583    -0.12070
C1542       C  0.85039788  0.98855223  0.49833318     0.01860
H1543       H  0.80227940  0.52393795  0.58347991     0.14840
H1544       H  0.91576035  0.98533553  0.51005118     0.14840
C1545       C  0.84577969  0.96713098  0.95266547     0.36500
C1546       C  0.85185182  0.51204227  0.64506398     0.36400
N1547       N  0.84585345  0.94929434  0.91749825    -0.43850
N1548       N  0.84205443  0.51324104  0.68431234    -0.43840
C1549       C  0.72280297  0.00055486  0.55922185    -0.00260
C1550       C  0.69049688  0.95905733  0.58120619    -0.12130
C1551       C  0.66500101  0.95896742  0.62168544     0.01980
C1552       C  0.67184648  0.50120901  0.64064662    -0.00340
C1553       C  0.70768371  0.54262902  0.62184232    -0.12070
C1554       C  0.73342918  0.54289949  0.58180465     0.01860
H1555       H  0.68278293  0.92671469  0.56485377     0.14840
H1556       H  0.71319694  0.57500433  0.63635185     0.14840
C1557       C  0.76997853  0.58677249  0.56442338     0.36500
C1558       C  0.63034409  0.91560793  0.64174530     0.36400
N1559       N  0.79989537  0.62222749  0.55167581    -0.43850
N1560       N  0.60260821  0.88109530  0.65836590    -0.43840
C1561       C  0.83151575  0.51979898  0.85035978    -0.00260
C1562       C  0.78893473  0.97827952  0.85889976    -0.12130
C1563       C  0.76524171  0.97062352  0.90249540     0.01980
C1564       C  0.78277576  0.00668282  0.93690396    -0.00340
C1565       C  0.81869077  0.55100687  0.92302265    -0.12070
C1566       C  0.84077884  0.55785797  0.87900382     0.01860
H1567       H  0.77905443  0.95000387  0.83457347     0.14840
H1568       H  0.83015215  0.57993189  0.94736087     0.14840
C1569       C  0.86017172  0.60276704  0.85870027     0.36500
C1570       C  0.73141517  0.92369732  0.91444646     0.36400
N1571       N  0.87042712  0.63832280  0.84286132    -0.43740
N1572       N  0.70491403  0.88567808  0.92339398    -0.43840
C1573       C  0.61050614  0.99206329  0.93385153    -0.00260
C1574       C  0.64736387  0.53414540  0.95450198    -0.12130
C1575       C  0.69263082  0.53887983  0.96817393     0.01980
C1576       C  0.69552659  0.99877891  0.97719926    -0.00340
C1577       C  0.65867005  0.95716120  0.96056379    -0.12070
C1578       C  0.62222542  0.95581891  0.93117503     0.01860
H1579       H  0.64319168  0.56412358  0.95178906     0.14840
H1580       H  0.66542203  0.92878401  0.96100937     0.14840
C1581       C  0.61832092  0.93150290  0.88753061     0.36500
C1582       C  0.73646178  0.58037515  0.95737562     0.36400
N1583       N  0.62278371  0.91521819  0.85295244    -0.43850
N1584       N  0.77190279  0.61351512  0.44696964    -0.43840
C1585       C  0.98047774  0.85524617  0.60228347    -0.00260
C1586       C  0.02049088  0.87260548  0.57277409    -0.12130
C1587       C  0.02582257  0.84404411  0.54076932     0.01980
C1588       C  0.98896819  0.79861127  0.53361217    -0.00340
C1589       C  0.45272313  0.78199841  0.56375275    -0.12070
C1590       C  0.44999328  0.80945810  0.60005485     0.01860
H1591       H  0.04896587  0.90815640  0.57621344     0.14840
H1592       H  0.42368124  0.74698712  0.55845012     0.14840
C1593       C  0.41208363  0.78844101  0.63409521     0.36500
C1594       C  0.07397701  0.85934481  0.02060425     0.36400
N1595       N  0.38299028  0.77185893  0.66275492    -0.43850
N1596       N  0.10986455  0.86650361  0.00448900    -0.43840
C1597       C  0.98517314  0.71115015  0.55252193    -0.00260
C1598       C  0.94079961  0.67214235  0.56343140    -0.12130
C1599       C  0.93375756  0.64938179  0.60781546     0.01980
C1600       C  0.97296738  0.66064104  0.63988765    -0.00340
C1601       C  0.51680975  0.70064543  0.63146593    -0.12070
C1602       C  0.52277034  0.72734772  0.59039703     0.01860
H1603       H  0.91083792  0.66068396  0.53805790     0.14840
H1604       H  0.54674555  0.71198727  0.65686144     0.14840
C1605       C  0.56596908  0.77143992  0.58938753     0.36500
C1606       C  0.88543052  0.62049798  0.62343290     0.36400
N1607       N  0.60148623  0.80628759  0.59147730    -0.43850
N1608       N  0.84711368  0.59973289  0.63829591    -0.43840
C1609       C  0.49803910  0.79516726  0.94332325    -0.00260
C1610       C  0.97279267  0.81918417  0.93879726    -0.12130
C1611       C  0.48318686  0.85285572  0.90364342     0.01980
C1612       C  0.51067943  0.85597424  0.86377828    -0.00340
C1613       C  0.53276951  0.82842949  0.86475776    -0.12070
C1614       C  0.53129134  0.80276642  0.90615851     0.01860
H1615       H  0.94784377  0.81534778  0.96596096     0.14840
H1616       H  0.55512588  0.83053969  0.83528371     0.14840
C1617       C  0.56912660  0.79145575  0.91083956     0.36500
C1618       C  0.97320248  0.88884787  0.91681875     0.36400
N1619       N  0.60133879  0.78475009  0.91227751    -0.43850
N1620       N  0.96634630  0.91717159  0.93198384    -0.43840
C1621       C  0.50067629  0.70531720  0.96388388    -0.00260
C1622       C  0.97526764  0.69462443  0.92059461    -0.12130
C1623       C  0.98663881  0.67341431  0.88386007     0.01980
C1624       C  0.51598782  0.65403706  0.89411383    -0.00340
C1625       C  0.54324040  0.66665593  0.93652777    -0.12070
C1626       C  0.53895180  0.69602893  0.96899664     0.01860
H1627       H  0.94855698  0.70512052  0.91414413     0.14840
H1628       H  0.57027913  0.65651026  0.94192306     0.14840
C1629       C  0.58027171  0.72588040  0.99843514     0.36500
C1630       C  0.97159290  0.67476429  0.83518947     0.36400
N1631       N  0.61710446  0.75384898  0.51758702    -0.43850
N1632       N  0.96140025  0.67661125  0.79562887    -0.43840
loop_ 
_geom_bond_atom_site_label_1 
_geom_bond_atom_site_label_2 
_geom_bond_distance 
_geom_bond_site_symmetry_2 
_ccdc_geom_bond_type 
C1          C169   1.542       .  S
C1         C1213   1.486   1_554  S
C1         C1022   1.375   1_554  D
C2          C181   1.554   1_655  S
C2         C1180   1.493       .  S
C2         C1021   1.376       .  D
C3          C148   1.491       .  S
C3          C325   1.504       .  S
C3            C4   1.396       .  D
C4          C136   1.493       .  S
C4          C313   1.535       .  S
C5          C100   1.547       .  S
C5          C280   1.495       .  S
C5            C6   1.381       .  D
C6           C88   1.476       .  S
C6          C265   1.542       .  S
O7           C18   1.291       .  A
O7          Eu43   2.453       .  S
O8           C19   1.281       .  A
O8          Eu42   2.413       .  S
O9           C20   1.301       .  A
O9          Eu15   2.507       .  S
O10          C21   1.329       .  A
O10        Eu831   2.663   1_465  S
O11          C21   1.267   1_545  A
O11         Eu45   2.282       .  S
O12          C20   1.294       .  A
O12         Eu44   2.489       .  S
O13          C19   1.297       .  A
O13        Eu423   2.491       .  S
O14         C834   1.293       .  A
O14         Eu15   2.458       .  S
Eu15        O826   2.659   1_545  S
Eu15        O421   2.497   1_545  S
Eu15         O17   2.383       .  S
Eu15        O841   2.321       .  S
Eu15        O424   2.315   1_545  S
Eu15        O431   2.382   1_545  S
O16         Eu42   2.338       .  S
O16        Eu423   2.314       .  S
O16       Eu1269   2.349       .  S
O17         Eu44   2.352       .  S
O17        Eu859   2.354       .  S
C18         O830   1.292       .  A
C18         C196   1.465       .  S
C19          C85   1.460       .  S
C20         C133   1.496       .  S
C21         C553   1.491       .  S
H22          O23   0.965       .  S
O23         Eu42   2.377       .  S
O23        Eu423   2.382       .  S
O23        Eu452   2.363       .  S
H24          O25   0.961       .  S
O25         Eu43   2.345       .  S
O25         Eu45   2.351       .  S
O25        Eu831   2.319   1_455  S
O26          C49   1.289       .  A
O26         Eu42   2.451       .  S
O27          C50   1.286       .  A
O27         Eu43   2.440       .  S
O28          C51   1.301       .  A
O28        Eu452   2.540       .  S
O29          C52   1.309       .  A
O29        Eu453   2.587       .  S
O30          C53   1.312       .  A
O30         Eu45   2.589       .  S
O31          C54   1.303       .  A
O31         Eu44   2.558       .  S
O32          C55   1.286   1_545  A
O32        Eu862   2.499       .  S
O33          C56   1.287       .  A
O33         Eu46   2.438       .  S
O34          C55   1.256       .  A
O34         Eu44   2.389   1_565  S
O35          C56   1.299       .  A
O35         Eu45   2.512       .  S
O36          C51   1.293       .  A
O36         Eu42   2.465       .  S
O37         C870   1.295   1_455  A
O37         Eu43   2.485       .  S
O38          C53   1.287       .  A
O38         Eu43   2.441       .  S
O39         C868   1.284       .  A
O39         Eu42   2.438       .  S
O40         C865   1.288   1_455  A
O40        Eu454   2.433       .  S
O41          C50   1.287       .  A
O41         Eu46   2.432       .  S
Eu42         O48   2.306       .  S
Eu42        O876   2.389       .  S
Eu43         O47   2.372       .  S
Eu43         O58   2.343   1_455  S
Eu43        O833   2.352   1_455  S
Eu44        O436   2.541   1_545  S
Eu44        O431   2.360   1_545  S
Eu44        O874   2.376       .  S
Eu44        O456   2.352   1_545  S
Eu45        O437   2.585   1_545  S
Eu45         O47   2.340       .  S
Eu45       O1240   2.347   1_545  S
Eu45        O468   2.351   1_545  S
Eu46        O848   2.492   1_455  S
Eu46        O448   2.433   1_445  S
Eu46         O47   2.368       .  S
Eu46         O58   2.358   1_455  S
Eu46        O468   2.373   1_545  S
Eu46       O1272   2.345   1_445  S
O48        Eu452   2.348       .  S
O48       Eu1270   2.343       .  S
C49         O856   1.288       .  A
C49         C157   1.472       .  S
C50          C73   1.456       .  S
C51          C64   1.506       .  S
C52         O855   1.283   1_455  A
C52         C184   1.520       .  S
C53          C97   1.530       .  S
C54         O853   1.296       .  A
C54         C172   1.527       .  S
C55         C112   1.474   1_565  S
C56         C124   1.486       .  S
H57          O58   0.962       .  S
O58        Eu860   2.373       .  S
H59          O60   0.965       .  S
O60        Eu858   2.387   1_455  S
O60        Eu453   2.355       .  S
O60        Eu454   2.375       .  S
C61         C210   1.542   1_554  S
C61          C62   1.424       .  A
C61          C66   1.424       .  A
C62          C63   1.432       .  A
C62          H67   1.083       .  S
C63          C64   1.415       .  A
C63          C70   1.440       .  S
C64          C65   1.393       .  A
C65          C66   1.391       .  A
C65          H68   1.086       .  S
C66          C69   1.432       .  S
C69          N71   1.154       .  T
C70          N72   1.157       .  T
C73          C74   1.400       .  A
C73          C78   1.401       .  A
C74          C75   1.401       .  A
C74          H79   1.085       .  S
C75          C76   1.416       .  A
C75          C82   1.439       .  S
C76         C209   1.495   1_554  S
C76          C77   1.398       .  A
C77          C78   1.387       .  A
C77          H80   1.077   1_554  S
C78          C81   1.448       .  S
C81          N83   1.157       .  T
C82          N84   1.155       .  T
C85          C86   1.398       .  A
C85          C90   1.396       .  A
C86          C87   1.398       .  A
C86          H91   1.082       .  S
C87          C88   1.417       .  A
C87          C94   1.446       .  S
C88          C89   1.398       .  A
C89          C90   1.390       .  A
C89          H92   1.084       .  S
C90          C93   1.439       .  S
C93          N95   1.156       .  T
C94          N96   1.157       .  T
C97          C98   1.408       .  A
C97         C102   1.428       .  A
C98          C99   1.421       .  A
C98         H103   1.078       .  S
C99         C100   1.414       .  A
C99         C106   1.440       .  S
C100        C101   1.408       .  A
C101        C102   1.414       .  A
C101        H104   1.080       .  S
C102        C105   1.444       .  S
C105        N107   1.157       .  T
C106        N312   1.158       .  T
N108        C310   1.158   1_554  T
C109        C208   1.535   1_554  S
C109        C114   1.442   1_554  A
C109        C518   1.395       .  A
C110        C111   1.387       .  A
C110        C517   1.396   1_545  A
C110        H115   1.061       .  S
C111        C112   1.416       .  A
C111        C118   1.439       .  S
C112        C521   1.383   1_545  A
C113        C114   1.402   1_554  A
C113        C520   1.383       .  A
C113        H116   1.087       .  S
C114        C321   1.428       .  S
C117        C318   1.428       .  S
C117        N119   1.153       .  T
C118        N120   1.157       .  T
C121        C207   1.504       .  S
C121        C122   1.407       .  A
C121        C534   1.418       .  A
C122        C123   1.411       .  A
C122        H127   1.083       .  S
C123        C532   1.413       .  A
C123        C130   1.443       .  S
C124        C125   1.401       .  A
C124        C531   1.412   1_545  A
C125        C126   1.404       .  A
C125        H128   1.085       .  S
C126        C529   1.418       .  A
C126        C129   1.443       .  S
C129        N131   1.158       .  T
C130        N132   1.157       .  T
C133        C138   1.406       .  A
C133        C542   1.402   1_545  A
C134        C135   1.407       .  A
C134        C541   1.400       .  A
C134        H139   1.074       .  S
C135        C136   1.417       .  A
C135        C142   1.442       .  S
C136        C545   1.400       .  A
C137        C138   1.398       .  A
C137        C544   1.400   1_545  A
C137        H140   1.084       .  S
C138        C141   1.433       .  S
C141        N143   1.156       .  T
C142        N144   1.157       .  T
C145        C429   1.495       .  S
C145        C150   1.437       .  A
C145        C554   1.409       .  A
C146        C147   1.416       .  A
C146        C553   1.409   1_545  A
C146        H151   1.079       .  S
C147        C556   1.394   1_545  A
C147        C154   1.440       .  S
C148        C149   1.378       .  A
C148        C555   1.394       .  A
C149        C150   1.393       .  A
C149        H152   1.072       .  S
C150        C153   1.438       .  S
C153        N155   1.158       .  T
C154        N360   1.158       .  T
N156        C358   1.158       .  T
C157        C158   1.403       .  A
C157        C978   1.413       .  A
C158        C159   1.384       .  A
C158        H163   1.085       .  S
C159        C160   1.399       .  A
C159        C370   1.434       .  S
C160       C1022   1.491   1_554  S
C160        C977   1.407       .  A
C161        C162   1.404       .  A
C161        C976   1.408       .  A
C161        H164   1.083       .  S
C162        C973   1.414       .  A
C162        C165   1.442       .  S
C165        N167   1.157       .  T
C166        C363   1.433       .  S
C166        N168   1.152       .  T
C169        C170   1.413       .  A
C169        C990   1.423       .  A
C170        C171   1.420       .  A
C170        H175   1.084       .  S
C171        C172   1.415       .  A
C171        C178   1.437       .  S
C172        C989   1.409       .  A
C173        C174   1.413       .  A
C173        C988   1.409   1_455  A
C173        H176   1.084       .  S
C174        C985   1.424   1_455  A
C174        C177   1.439       .  S
C177        N179   1.157       .  T
C178        N180   1.156       .  T
C181        C186   1.435       .  A
C181        C998   1.404   1_455  A
C182        C997   1.404       .  A
C182        C999   1.400       .  A
C182        H187   1.075       .  S
C183        C184   1.409   1_655  A
C183        C998   1.400       .  A
C183       C1006   1.436       .  S
C184        C185   1.411       .  A
C185        C186   1.429       .  A
C185        H188   1.084       .  S
C186        C189   1.438       .  S
C189        N191   1.157       .  T
C190        C999   1.437       .  S
C190        N192   1.156       .  T
C193       C1021   1.489   1_455  S
C193        C198   1.408       .  A
C193       C1010   1.409   1_455  A
C194        C195   1.403       .  A
C194       C1009   1.408       .  A
C194        H199   1.083       .  S
C195       C1012   1.404       .  A
C195        C202   1.444       .  S
C196        C197   1.393       .  A
C196       C1011   1.404   1_455  A
C197        C198   1.397       .  A
C197        H200   1.081       .  S
C198        C201   1.438       .  S
C201        N407   1.157       .  T
C202        N204   1.158       .  T
N203        C405   1.157   1_554  T
C205        C373   1.542       .  S
C205       C1009   1.487       .  S
C205        C818   1.374       .  D
C206        C976   1.494   1_556  S
C206        C385   1.554   1_655  S
C206        C817   1.375   1_556  D
C207        C352   1.491   1_554  S
C207        C208   1.396   1_554  D
C208        C340   1.494       .  S
C209        C304   1.548       .  S
C209        C210   1.380       .  D
C210        C292   1.475       .  S
O211        C222   1.290       .  A
O211       Eu247   2.451       .  S
O212        C223   1.280       .  A
O212       Eu246   2.412       .  S
O213        C224   1.302       .  A
O213       Eu219   2.517       .  S
O214        C225   1.330       .  A
O214      Eu1035   2.670   1_465  S
O215        C225   1.268   1_545  A
O215       Eu249   2.289       .  S
O216        C224   1.291       .  A
O216       Eu248   2.474       .  S
O217        C223   1.297       .  A
O217       Eu627   2.490       .  S
O218       C1038   1.291       .  A
O218       Eu219   2.449       .  S
Eu219      O1030   2.661   1_545  S
Eu219       O625   2.494   1_545  S
Eu219      O1045   2.326       .  S
Eu219       O221   2.390       .  S
Eu219       O628   2.316   1_545  S
Eu219       O635   2.384   1_545  S
O220       Eu627   2.315       .  S
O220      Eu1473   2.348       .  S
O220       Eu246   2.337       .  S
O221      Eu1063   2.355       .  S
O221       Eu248   2.349       .  S
C222       O1034   1.292       .  A
C222        C400   1.464       .  S
C223        C289   1.458       .  S
C224        C337   1.495       .  S
C225        C757   1.498       .  S
H226        O227   0.965       .  S
O227       Eu627   2.383       .  S
O227       Eu656   2.363       .  S
O227       Eu246   2.377       .  S
H228        O229   0.961       .  S
O229      Eu1035   2.320   1_455  S
O229       Eu247   2.350       .  S
O229       Eu249   2.353       .  S
O230        C253   1.289       .  A
O230       Eu246   2.452       .  S
O231        C254   1.287       .  A
O231       Eu247   2.443       .  S
O232        C255   1.302       .  A
O232       Eu656   2.543       .  S
O233        C256   1.309       .  A
O233       Eu657   2.586       .  S
O234        C257   1.314       .  A
O234       Eu249   2.597       .  S
O235        C258   1.302       .  A
O235       Eu248   2.525       .  S
O236        C259   1.299   1_565  A
O236      Eu1066   2.535   1_565  S
O237        C260   1.286       .  A
O237       Eu250   2.432       .  S
O238        C259   1.256       .  A
O238       Eu248   2.367       .  S
O239        C260   1.299       .  A
O239       Eu249   2.507       .  S
O240        C255   1.293       .  A
O240       Eu246   2.464       .  S
O241       C1074   1.295   1_455  A
O241       Eu247   2.486       .  S
O242        C257   1.286       .  A
O242       Eu247   2.436       .  S
O243       C1072   1.283       .  A
O243       Eu246   2.437       .  S
O244       C1069   1.289   1_455  A
O244       Eu658   2.434       .  S
O245        C254   1.287       .  A
O245       Eu250   2.428       .  S
Eu246      O1080   2.389       .  S
Eu246       O252   2.306       .  S
Eu247      O1037   2.351   1_455  S
Eu247       O251   2.370       .  S
Eu247       O262   2.341   1_455  S
Eu248       O640   2.545   1_545  S
Eu248       O635   2.358   1_545  S
Eu248      O1078   2.360       .  S
Eu248       O660   2.364   1_545  S
Eu249       O641   2.585   1_545  S
Eu249      O1444   2.347   1_545  S
Eu249       O251   2.344       .  S
Eu249       O672   2.356   1_545  S
Eu250      O1052   2.494   1_455  S
Eu250       O652   2.432   1_445  S
Eu250       O251   2.369       .  S
Eu250       O262   2.355   1_455  S
Eu250       O672   2.373   1_545  S
Eu250      O1476   2.341   1_445  S
O252       Eu656   2.348       .  S
O252      Eu1474   2.343       .  S
C253       O1060   1.288       .  A
C253        C361   1.472       .  S
C254        C277   1.456       .  S
C255        C268   1.507       .  S
C256       O1059   1.283   1_455  A
C256        C388   1.519       .  S
C257        C301   1.531       .  S
C258       O1057   1.298       .  A
C258        C376   1.530       .  S
C259        C316   1.471   1_545  S
C260        C328   1.481   1_545  S
H261        O262   0.962       .  S
O262      Eu1064   2.372       .  S
H263        O264   0.965       .  S
O264      Eu1062   2.389   1_455  S
O264       Eu657   2.354       .  S
O264       Eu658   2.374       .  S
C265        C266   1.424       .  A
C265        C270   1.423       .  A
C266        C267   1.433       .  A
C266        H271   1.083       .  S
C267        C268   1.416       .  A
C267        C274   1.440       .  S
C268        C269   1.393       .  A
C269        C270   1.391       .  A
C269        H272   1.086       .  S
C270        C273   1.432       .  S
C273        N275   1.154       .  T
C274        N276   1.157       .  T
C277        C278   1.400       .  A
C277        C282   1.402       .  A
C278        C279   1.402       .  A
C278        H283   1.085       .  S
C279        C280   1.416       .  A
C279        C286   1.439       .  S
C280        C281   1.399       .  A
C281        C282   1.387       .  A
C281        H284   1.078       .  S
C282        C285   1.448       .  S
C285        N287   1.158       .  T
C286        N288   1.155       .  T
C289        C290   1.398       .  A
C289        C294   1.396       .  A
C290        C291   1.397       .  A
C290        H295   1.082       .  S
C291        C292   1.416       .  A
C291        C298   1.446       .  S
C292        C293   1.398       .  A
C293        C294   1.390       .  A
C293        H296   1.083       .  S
C294        C297   1.439       .  S
C297        N299   1.156       .  T
C298        N300   1.157       .  T
C301        C302   1.406       .  A
C301        C306   1.429       .  A
C302        C303   1.421       .  A
C302        H307   1.076       .  S
C303        C304   1.413       .  A
C303        C310   1.440       .  S
C304        C305   1.408       .  A
C305        C306   1.415       .  A
C305        H308   1.080       .  S
C306        C309   1.444       .  S
C309        N311   1.157       .  T
C313        C722   1.394       .  A
C313        C318   1.442       .  A
C314        C721   1.397       .  A
C314        C315   1.380       .  A
C314        H319   1.061       .  S
C315        C316   1.420       .  A
C315        C322   1.446   1_565  S
C316        C725   1.381       .  A
C317        C724   1.383       .  A
C317        C318   1.402       .  A
C317        H320   1.087       .  S
C321        N323   1.153       .  T
C322        N324   1.157       .  T
C325        C326   1.407       .  A
C325        C738   1.418       .  A
C326        C327   1.410       .  A
C326        H331   1.083       .  S
C327        C736   1.413       .  A
C327        C334   1.443       .  S
C328        C735   1.410       .  A
C328        C329   1.403   1_565  A
C329        C330   1.406       .  A
C329        H332   1.085       .  S
C330        C733   1.415   1_545  A
C330        C333   1.441       .  S
C333        N335   1.157       .  T
C334        N336   1.157       .  T
C337        C746   1.400   1_545  A
C337        C342   1.405       .  A
C338        C745   1.400       .  A
C338        C339   1.407       .  A
C338        H343   1.074       .  S
C339        C340   1.417       .  A
C339        C346   1.442       .  S
C340        C749   1.400       .  A
C341        C748   1.401       .  A
C341        C342   1.397       .  A
C341        H344   1.084       .  S
C342        C345   1.434       .  S
C345        N347   1.156       .  T
C346        N348   1.157       .  T
C349        C633   1.496       .  S
C349        C758   1.409       .  A
C349        C354   1.437       .  A
C350        C757   1.409   1_545  A
C350        C351   1.420       .  A
C350        H355   1.077       .  S
C351        C760   1.393   1_545  A
C351        C358   1.440       .  S
C352        C759   1.394       .  A
C352        C353   1.378       .  A
C353        C354   1.393       .  A
C353        H356   1.072       .  S
C354        C357   1.438       .  S
C357        N359   1.158       .  T
C361        C362   1.403       .  A
C361       C1182   1.413       .  A
C362        C363   1.384       .  A
C362        H367   1.085       .  S
C363        C364   1.397       .  A
C364        C818   1.491       .  S
C364       C1181   1.407       .  A
C365       C1180   1.407       .  A
C365        C366   1.404       .  A
C365        H368   1.083       .  S
C366       C1177   1.414       .  A
C366        C369   1.442       .  S
C369        N371   1.157       .  T
C370        N372   1.153       .  T
C373        C374   1.409       .  A
C373       C1194   1.425       .  A
C374        C375   1.418       .  A
C374        H379   1.085       .  S
C375        C376   1.419       .  A
C375        C382   1.436       .  S
C376       C1193   1.410       .  A
C377       C1192   1.409   1_455  A
C377        C378   1.413       .  A
C377        H380   1.084       .  S
C378       C1189   1.424   1_455  A
C378        C381   1.439       .  S
C381        N383   1.157       .  T
C382        N384   1.155       .  T
C385       C1202   1.403   1_455  A
C385        C390   1.436       .  A
C386       C1201   1.404       .  A
C386       C1203   1.400       .  A
C386        H391   1.076       .  S
C387       C1202   1.399       .  A
C387        C388   1.409   1_655  A
C387       C1210   1.437       .  S
C388        C389   1.410       .  A
C389        C390   1.429       .  A
C389        H392   1.084       .  S
C390        C393   1.438       .  S
C393        N395   1.157       .  T
C394       C1203   1.436       .  S
C394        N396   1.156       .  T
C397        C817   1.487   1_456  S
C397       C1214   1.408   1_455  A
C397        C402   1.407       .  A
C398       C1213   1.408       .  A
C398        C399   1.403       .  A
C398        H403   1.083       .  S
C399       C1216   1.403       .  A
C399        C406   1.444       .  S
C400       C1215   1.404   1_455  A
C400        C401   1.392       .  A
C401        C402   1.397       .  A
C401        H404   1.081       .  S
C402        C405   1.438       .  S
C406        N408   1.158       .  T
C409        C577   1.543       .  S
C409       C1621   1.489   1_554  S
C409       C1430   1.376   1_554  D
C410       C1588   1.494       .  S
C410        C589   1.557       .  S
C410       C1429   1.376       .  D
C411        C733   1.501       .  S
C411        C556   1.487       .  S
C411        C412   1.395       .  D
C412        C721   1.538       .  S
C412        C544   1.499       .  S
C413        C688   1.497       .  S
C413        C508   1.548       .  S
C413        C414   1.381       .  D
C414        C673   1.543       .  S
C414        C496   1.474       .  S
O415        C426   1.291       .  A
O415       Eu451   2.453       .  S
O416        C427   1.279       .  A
O416       Eu450   2.401       .  S
O417        C428   1.302       .  A
O417       Eu423   2.515       .  S
O418        C429   1.329       .  A
O418      Eu1239   2.665   1_455  S
O419        C429   1.268       .  A
O419       Eu453   2.291       .  S
O420        C428   1.290       .  A
O420       Eu452   2.473       .  S
O421        C427   1.298       .  A
O422       C1242   1.292       .  A
O422       Eu423   2.451       .  S
Eu423      O1234   2.668       .  S
Eu423      O1249   2.320       .  S
Eu423       O425   2.382       .  S
O424       Eu861   2.346   1_565  S
O424       Eu450   2.338       .  S
O425      Eu1267   2.351       .  S
O425       Eu452   2.352       .  S
C426       O1238   1.292       .  A
C426        C604   1.464       .  S
C427        C493   1.456       .  S
C428        C541   1.492       .  S
H430        O431   0.965       .  S
O431       Eu450   2.379       .  S
H432        O433   0.961       .  S
O433      Eu1239   2.320   1_455  S
O433       Eu451   2.349       .  S
O433       Eu453   2.354       .  S
O434        C457   1.289       .  A
O434       Eu450   2.450       .  S
O435        C458   1.287       .  A
O435       Eu451   2.444       .  S
O436        C459   1.301       .  A
O437        C460   1.307       .  A
O438        C461   1.314       .  A
O438       Eu453   2.595       .  S
O439        C462   1.303       .  A
O439       Eu452   2.557       .  S
O440        C463   1.286       .  A
O440      Eu1270   2.497       .  S
O441        C464   1.287       .  A
O441       Eu454   2.437       .  S
O442        C463   1.255       .  A
O442       Eu452   2.387       .  S
O443        C464   1.300       .  A
O443       Eu453   2.512       .  S
O444        C459   1.293       .  A
O444       Eu450   2.465       .  S
O445       C1278   1.296   1_455  A
O445       Eu451   2.487       .  S
O446        C461   1.286       .  A
O446       Eu451   2.436       .  S
O447       C1276   1.284       .  A
O447       Eu450   2.440       .  S
O448       C1273   1.288       .  A
O449        C458   1.288       .  A
O449       Eu454   2.433       .  S
Eu450      O1284   2.385       .  S
Eu450       O456   2.304       .  S
Eu451      O1241   2.351   1_455  S
Eu451       O455   2.371       .  S
Eu451       O466   2.341   1_455  S
Eu452      O1282   2.372       .  S
Eu453       O832   2.348       .  S
Eu453       O455   2.345       .  S
Eu454      O1256   2.500   1_455  S
Eu454       O455   2.370       .  S
Eu454       O466   2.355   1_455  S
Eu454       O864   2.343   1_455  S
O456       Eu862   2.344   1_565  S
C457       O1264   1.289       .  A
C457        C565   1.474       .  S
C458        C481   1.458       .  S
C459        C472   1.505       .  S
C460       O1263   1.283   1_455  A
C460        C592   1.520       .  S
C461        C505   1.531       .  S
C462       O1261   1.296       .  A
C462        C580   1.527       .  S
C463        C520   1.473       .  S
C464        C532   1.485       .  S
H465        O466   0.962       .  S
O466      Eu1268   2.373       .  S
H467        O468   0.965       .  S
O468      Eu1266   2.391   1_455  S
C469        C618   1.542   1_554  S
C469        C470   1.424       .  A
C469        C474   1.424       .  A
C470        C471   1.432       .  A
C470        H475   1.083       .  S
C471        C472   1.415       .  A
C471        C478   1.440       .  S
C472        C473   1.393       .  A
C473        C474   1.391       .  A
C473        H476   1.086       .  S
C474        C477   1.433       .  S
C477        N479   1.154       .  T
C478        N480   1.157       .  T
C481        C482   1.401       .  A
C481        C486   1.402       .  A
C482        C483   1.403       .  A
C482        H487   1.085       .  S
C483        C484   1.416       .  A
C483        C490   1.439       .  S
C484        C617   1.497   1_554  S
C484        C485   1.399       .  A
C485        C486   1.388       .  A
C485        H488   1.077   1_554  S
C486        C489   1.448       .  S
C489        N491   1.157       .  T
C490        N492   1.155       .  T
C493        C494   1.397       .  A
C493        C498   1.394       .  A
C494        C495   1.397       .  A
C494        H499   1.082       .  S
C495        C496   1.416       .  A
C495        C502   1.446       .  S
C496        C497   1.398       .  A
C497        C498   1.389       .  A
C497        H500   1.083       .  S
C498        C501   1.440       .  S
C501        N503   1.156       .  T
C502        N504   1.157       .  T
C505        C506   1.407       .  A
C505        C510   1.429       .  A
C506        C507   1.422       .  A
C506        H511   1.077       .  S
C507        C508   1.413       .  A
C507        C514   1.440       .  S
C508        C509   1.408       .  A
C509        C510   1.414       .  A
C509        H512   1.080       .  S
C510        C513   1.444       .  S
C513        N515   1.157       .  T
C514        N720   1.158       .  T
N516        C718   1.158   1_554  T
C517        C616   1.536   1_564  S
C517        C522   1.441   1_554  A
C518        C519   1.385       .  A
C518        H523   1.060       .  S
C519        C520   1.415       .  A
C519        C526   1.437       .  S
C521        C522   1.402   1_554  A
C521        H524   1.087       .  S
C522        C729   1.428       .  S
C525        C726   1.427       .  S
C525        N527   1.153       .  T
C526        N528   1.156       .  T
C529        C615   1.505       .  S
C529        C530   1.407   1_545  A
C530        C531   1.411       .  A
C530        H535   1.083       .  S
C531        C538   1.443       .  S
C532        C533   1.401       .  A
C533        C534   1.404       .  A
C533        H536   1.085       .  S
C534        C537   1.443       .  S
C537        N539   1.158       .  T
C538        N540   1.157       .  T
C541        C546   1.403       .  A
C542        C543   1.409       .  A
C542        H547   1.075       .  S
C543        C544   1.415       .  A
C543        C550   1.440       .  S
C545        C546   1.396       .  A
C545        H548   1.084       .  S
C546        C549   1.433       .  S
C549        N551   1.156       .  T
C550        N552   1.157       .  T
C553        C558   1.438       .  A
C554        C555   1.419       .  A
C554        H559   1.077       .  S
C555        C562   1.440       .  S
C556        C557   1.377       .  A
C557        C558   1.389       .  A
C557        H560   1.075       .  S
C558        C561   1.439       .  S
C561        N563   1.158       .  T
C562        N768   1.158       .  T
N564        C766   1.158       .  T
C565        C566   1.403       .  A
C565       C1386   1.414       .  A
C566        C567   1.385       .  A
C566        H571   1.085       .  S
C567        C568   1.399       .  A
C567        C778   1.434       .  S
C568       C1430   1.493   1_554  S
C568       C1385   1.407       .  A
C569       C1384   1.407       .  A
C569        C570   1.403       .  A
C569        H572   1.083       .  S
C570       C1381   1.413       .  A
C570        C573   1.442       .  S
C573        N575   1.157       .  T
C574        C771   1.435       .  S
C574        N576   1.153       .  T
C577        C578   1.413       .  A
C577       C1398   1.424       .  A
C578        C579   1.420       .  A
C578        H583   1.084       .  S
C579        C580   1.415       .  A
C579        C586   1.437       .  S
C580       C1397   1.409       .  A
C581       C1396   1.409   1_455  A
C581        C582   1.413       .  A
C581        H584   1.084       .  S
C582       C1393   1.424   1_455  A
C582        C585   1.438       .  S
C585        N587   1.157       .  T
C586        N588   1.156       .  T
C589       C1406   1.405       .  A
C589        C594   1.436   1_655  A
C590       C1405   1.402       .  A
C590       C1407   1.400       .  A
C590        H595   1.073       .  S
C591       C1406   1.401       .  A
C591        C592   1.408   1_655  A
C591       C1414   1.437       .  S
C592        C593   1.410       .  A
C593        C594   1.429       .  A
C593        H596   1.084       .  S
C594        C597   1.438       .  S
C597        N599   1.157       .  T
C598       C1407   1.436       .  S
C598        N600   1.156       .  T
C601       C1429   1.488   1_455  S
C601       C1418   1.409   1_455  A
C601        C606   1.408       .  A
C602       C1417   1.408       .  A
C602        C603   1.403       .  A
C602        H607   1.083       .  S
C603       C1420   1.404       .  A
C603        C610   1.443       .  S
C604       C1419   1.404   1_455  A
C604        C605   1.392       .  A
C605        C606   1.397       .  A
C605        H608   1.081       .  S
C606        C609   1.438       .  S
C609        N815   1.157       .  T
C610        N612   1.158       .  T
N611        C813   1.157   1_554  T
C613        C781   1.542       .  S
C613       C1417   1.486       .  S
C613       C1226   1.375       .  D
C614       C1384   1.492   1_556  S
C614        C793   1.555       .  S
C614       C1225   1.375   1_556  D
C615        C760   1.492   1_544  S
C615        C616   1.396   1_554  D
C616        C748   1.496       .  S
C617        C712   1.547       .  S
C617        C618   1.381       .  D
C618        C700   1.478       .  S
O619        C630   1.291       .  A
O619       Eu655   2.452       .  S
O620        C631   1.281       .  A
O620       Eu654   2.415       .  S
O621        C632   1.302       .  A
O621       Eu627   2.515       .  S
O622        C633   1.329       .  A
O622      Eu1443   2.666   1_455  S
O623        C633   1.268       .  A
O623       Eu657   2.289       .  S
O624        C632   1.290       .  A
O624       Eu656   2.474       .  S
O625        C631   1.298       .  A
O626       C1446   1.292       .  A
O626       Eu627   2.452       .  S
Eu627      O1438   2.668       .  S
Eu627      O1453   2.320       .  S
Eu627       O629   2.381       .  S
O628      Eu1065   2.345   1_565  S
O628       Eu654   2.339       .  S
O629      Eu1471   2.350       .  S
O629       Eu656   2.353       .  S
C630       O1442   1.291       .  A
C630        C808   1.463       .  S
C631        C697   1.462       .  S
C632        C745   1.492       .  S
H634        O635   0.965       .  S
O635       Eu654   2.373       .  S
H636        O637   0.961       .  S
O637      Eu1443   2.320   1_455  S
O637       Eu655   2.349       .  S
O637       Eu657   2.353       .  S
O638        C661   1.290       .  A
O638       Eu654   2.460       .  S
O639        C662   1.287       .  A
O639       Eu655   2.441       .  S
O640        C663   1.296       .  A
O641        C664   1.309       .  A
O642        C665   1.314       .  A
O642       Eu657   2.595       .  S
O643        C666   1.303       .  A
O643       Eu656   2.558       .  S
O644        C667   1.286       .  A
O644      Eu1474   2.498       .  S
O645        C668   1.287       .  A
O645       Eu658   2.438       .  S
O646        C667   1.255       .  A
O646       Eu656   2.387       .  S
O647        C668   1.299       .  A
O647       Eu657   2.510       .  S
O648        C663   1.288       .  A
O648       Eu654   2.448       .  S
O649       C1482   1.296   1_455  A
O649       Eu655   2.489       .  S
O650        C665   1.287       .  A
O650       Eu655   2.437       .  S
O651       C1480   1.284       .  A
O651       Eu654   2.439       .  S
O652       C1477   1.288       .  A
O653        C662   1.288       .  A
O653       Eu658   2.435       .  S
Eu654      O1488   2.376       .  S
Eu654       O660   2.330       .  S
Eu655      O1445   2.351   1_455  S
Eu655       O659   2.372       .  S
Eu655       O670   2.341   1_455  S
Eu656      O1486   2.373       .  S
Eu657      O1036   2.348       .  S
Eu657       O659   2.345       .  S
Eu658      O1460   2.498   1_455  S
Eu658       O659   2.369       .  S
Eu658       O670   2.357   1_455  S
Eu658      O1068   2.345   1_455  S
O660      Eu1066   2.345   1_565  S
C661       O1468   1.287       .  A
C661        C769   1.476       .  S
C662        C685   1.458       .  S
C663        C676   1.501       .  S
C664       O1467   1.284   1_455  A
C664        C796   1.519       .  S
C665        C709   1.531       .  S
C666       O1465   1.295       .  A
C666        C784   1.526       .  S
C667        C724   1.474       .  S
C668        C736   1.484       .  S
H669        O670   0.962       .  S
O670      Eu1472   2.374       .  S
H671        O672   0.965       .  S
O672      Eu1470   2.386   1_455  S
C673        C674   1.424       .  A
C673        C678   1.426       .  A
C674        C675   1.432       .  A
C674        H679   1.083       .  S
C675        C676   1.415       .  A
C675        C682   1.440       .  S
C676        C677   1.388       .  A
C677        C678   1.390       .  A
C677        H680   1.087       .  S
C678        C681   1.429       .  S
C681        N683   1.153       .  T
C682        N684   1.157       .  T
C685        C686   1.401       .  A
C685        C690   1.401       .  A
C686        C687   1.402       .  A
C686        H691   1.085       .  S
C687        C688   1.416       .  A
C687        C694   1.439       .  S
C688        C689   1.400       .  A
C689        C690   1.388       .  A
C689        H692   1.077       .  S
C690        C693   1.448       .  S
C693        N695   1.158       .  T
C694        N696   1.155       .  T
C697        C698   1.398       .  A
C697        C702   1.396       .  A
C698        C699   1.398       .  A
C698        H703   1.082       .  S
C699        C700   1.416       .  A
C699        C706   1.446       .  S
C700        C701   1.399       .  A
C701        C702   1.391       .  A
C701        H704   1.084       .  S
C702        C705   1.439       .  S
C705        N707   1.156       .  T
C706        N708   1.157       .  T
C709        C710   1.407       .  A
C709        C714   1.429       .  A
C710        C711   1.421       .  A
C710        H715   1.077       .  S
C711        C712   1.413       .  A
C711        C718   1.440       .  S
C712        C713   1.408       .  A
C713        C714   1.415       .  A
C713        H716   1.080       .  S
C714        C717   1.444       .  S
C717        N719   1.157       .  T
C721        C726   1.442       .  A
C722        C723   1.385       .  A
C722        H727   1.060       .  S
C723        C724   1.415       .  A
C723        C730   1.437       .  S
C725        C726   1.401       .  A
C725        H728   1.086       .  S
C729        N731   1.153       .  T
C730        N732   1.156       .  T
C733        C734   1.407       .  A
C734        C735   1.406       .  A
C734        H739   1.081       .  S
C735        C742   1.443       .  S
C736        C737   1.401       .  A
C737        C738   1.403       .  A
C737        H740   1.085       .  S
C738        C741   1.443       .  S
C741        N743   1.158       .  T
C742        N744   1.157       .  T
C745        C750   1.403       .  A
C746        C747   1.409       .  A
C746        H751   1.075       .  S
C747        C748   1.417   1_565  A
C747        C754   1.442       .  S
C749        C750   1.396       .  A
C749        H752   1.084       .  S
C750        C753   1.433       .  S
C753        N755   1.156       .  T
C754        N756   1.157       .  T
C757        C762   1.437       .  A
C758        C759   1.419       .  A
C758        H763   1.077       .  S
C759        C766   1.440       .  S
C760        C761   1.379       .  A
C761        C762   1.395       .  A
C761        H764   1.073       .  S
C762        C765   1.438       .  S
C765        N767   1.158       .  T
C769        C770   1.404       .  A
C769       C1590   1.414       .  A
C770        C771   1.386       .  A
C770        H775   1.084       .  S
C771        C772   1.398       .  A
C772       C1226   1.493       .  S
C772       C1589   1.407       .  A
C773       C1588   1.407       .  A
C773        C774   1.404       .  A
C773        H776   1.083       .  S
C774       C1585   1.414       .  A
C774        C777   1.442       .  S
C777        N779   1.158       .  T
C778        N780   1.153       .  T
C781        C782   1.413       .  A
C781       C1602   1.424       .  A
C782        C783   1.420       .  A
C782        H787   1.084       .  S
C783        C784   1.414       .  A
C783        C790   1.437       .  S
C784       C1601   1.408       .  A
C785       C1600   1.409   1_455  A
C785        C786   1.414       .  A
C785        H788   1.084       .  S
C786       C1597   1.424   1_455  A
C786        C789   1.439       .  S
C789        N791   1.157       .  T
C790        N792   1.156       .  T
C793       C1610   1.404       .  A
C793        C798   1.435   1_655  A
C794       C1609   1.404       .  A
C794       C1611   1.400       .  A
C794        H799   1.076       .  S
C795       C1610   1.400       .  A
C795        C796   1.409   1_655  A
C795       C1618   1.437       .  S
C796        C797   1.410       .  A
C797        C798   1.428       .  A
C797        H800   1.084       .  S
C798        C801   1.438       .  S
C801        N803   1.157       .  T
C802       C1611   1.437       .  S
C802        N804   1.156       .  T
C805       C1225   1.487   1_456  S
C805       C1622   1.408   1_455  A
C805        C810   1.407       .  A
C806       C1621   1.409       .  A
C806        C807   1.404       .  A
C806        H811   1.083       .  S
C807       C1624   1.404       .  A
C807        C814   1.443       .  S
C808       C1623   1.404   1_455  A
C808        C809   1.392       .  A
C809        C810   1.397       .  A
C809        H812   1.081       .  S
C810        C813   1.438       .  S
C814        N816   1.158       .  T
C817        C985   1.541       .  S
C818        C997   1.555       .  S
C819       C1141   1.505       .  S
C819        C964   1.492       .  S
C819        C820   1.396       .  D
C820       C1129   1.535       .  S
C820        C952   1.494       .  S
C821       C1096   1.496       .  S
C821        C916   1.548       .  S
C821        C822   1.381       .  D
C822       C1081   1.542       .  S
C822        C904   1.475       .  S
O823        C834   1.290       .  A
O823       Eu859   2.446       .  S
O824        C835   1.280       .  A
O824       Eu858   2.411       .  S
O825        C836   1.301       .  A
O825       Eu831   2.511       .  S
O826        C837   1.328       .  A
O827        C837   1.269   1_545  A
O827       Eu861   2.293       .  S
O828        C836   1.291       .  A
O828       Eu860   2.476       .  S
O829        C835   1.297       .  A
O829      Eu1239   2.491       .  S
O830       Eu831   2.453   1_455  S
Eu831      O1237   2.491   1_545  S
Eu831       O833   2.381       .  S
Eu831      O1240   2.314   1_645  S
Eu831      O1247   2.380   1_545  S
O832      Eu1239   2.315   1_455  S
O832       Eu858   2.338   1_455  S
O833       Eu860   2.351       .  S
C834       C1012   1.463       .  S
C835        C901   1.458       .  S
C836        C949   1.491       .  S
C837       C1369   1.494       .  S
H838        O839   0.965       .  S
O839      Eu1239   2.381       .  S
O839      Eu1268   2.361       .  S
O839       Eu858   2.377       .  S
H840        O841   0.961       .  S
O841       Eu859   2.350       .  S
O841       Eu861   2.353       .  S
O842        C865   1.289       .  A
O842       Eu858   2.454       .  S
O843        C866   1.286       .  A
O843       Eu859   2.442       .  S
O844        C867   1.301       .  A
O844      Eu1268   2.539       .  S
O845        C868   1.308       .  A
O845      Eu1269   2.584       .  S
O846        C869   1.314       .  A
O846       Eu861   2.595       .  S
O847        C870   1.303       .  A
O847       Eu860   2.557       .  S
O848        C871   1.285   1_545  A
O849        C872   1.287       .  A
O849       Eu862   2.439       .  S
O850        C871   1.255       .  A
O850       Eu860   2.388   1_565  S
O851        C872   1.299       .  A
O851       Eu861   2.507       .  S
O852        C867   1.292       .  A
O852       Eu858   2.462       .  S
O853       Eu859   2.487       .  S
O854        C869   1.286       .  A
O854       Eu859   2.437       .  S
O855       Eu858   2.436       .  S
O856      Eu1270   2.432       .  S
O857        C866   1.288       .  A
O857       Eu862   2.434       .  S
Eu858       O864   2.307       .  S
Eu859       O863   2.370       .  S
Eu859       O874   2.339       .  S
Eu860      O1252   2.540   1_545  S
Eu860      O1247   2.361   1_545  S
Eu860      O1272   2.349   1_545  S
Eu861      O1253   2.586   1_545  S
Eu861       O863   2.346       .  S
Eu861      O1284   2.357   1_545  S
Eu862      O1264   2.436   1_545  S
Eu862       O863   2.369       .  S
Eu862       O874   2.358       .  S
Eu862      O1284   2.374   1_545  S
O864      Eu1268   2.349       .  S
C865        C973   1.474       .  S
C866        C889   1.458       .  S
C867        C880   1.504       .  S
C868       C1000   1.519       .  S
C869        C913   1.531       .  S
C870        C988   1.525       .  S
C871        C928   1.471   1_565  S
C872        C940   1.483       .  S
H873        O874   0.962       .  S
H875        O876   0.965       .  S
O876      Eu1269   2.355       .  S
O876      Eu1270   2.373       .  S
C877       C1026   1.540       .  S
C877        C878   1.424       .  A
C877        C882   1.423       .  A
C878        C879   1.432       .  A
C878        H883   1.083       .  S
C879        C880   1.415       .  A
C879        C886   1.440       .  S
C880        C881   1.393       .  A
C881        C882   1.390       .  A
C881        H884   1.086       .  S
C882        C885   1.432       .  S
C885        N887   1.154       .  T
C886        N888   1.157       .  T
C889        C890   1.401       .  A
C889        C894   1.401       .  A
C890        C891   1.403       .  A
C890        H895   1.085       .  S
C891        C892   1.416       .  A
C891        C898   1.439       .  S
C892       C1025   1.495   1_554  S
C892        C893   1.398       .  A
C893        C894   1.388       .  A
C893        H896   1.076   1_554  S
C894        C897   1.448       .  S
C897        N899   1.158       .  T
C898        N900   1.155       .  T
C901        C902   1.398       .  A
C901        C906   1.396       .  A
C902        C903   1.397       .  A
C902        H907   1.082       .  S
C903        C904   1.416       .  A
C903        C910   1.446       .  S
C904        C905   1.398       .  A
C905        C906   1.390       .  A
C905        H908   1.083       .  S
C906        C909   1.439       .  S
C909        N911   1.156       .  T
C910        N912   1.157       .  T
C913        C914   1.406       .  A
C913        C918   1.429       .  A
C914        C915   1.421       .  A
C914        H919   1.077       .  S
C915        C916   1.413       .  A
C915        C922   1.440       .  S
C916        C917   1.408       .  A
C917        C918   1.415       .  A
C917        H920   1.080       .  S
C918        C921   1.444       .  S
C921        N923   1.157       .  T
C922       N1128   1.158       .  T
N924       C1126   1.158   1_554  T
C925       C1024   1.536   1_554  S
C925       C1334   1.395       .  A
C925        C930   1.442   1_554  A
C926       C1333   1.394   1_545  A
C926        C927   1.384       .  A
C926        H931   1.060       .  S
C927        C928   1.415       .  A
C927        C934   1.437       .  S
C928       C1337   1.383   1_545  A
C929       C1336   1.383       .  A
C929        C930   1.403   1_554  A
C929        H932   1.087       .  S
C930       C1137   1.428       .  S
C933       C1134   1.428       .  S
C933        N935   1.153       .  T
C934        N936   1.156       .  T
C937       C1023   1.505       .  S
C937        C938   1.407       .  A
C937       C1350   1.418       .  A
C938        C939   1.411       .  A
C938        H943   1.083       .  S
C939       C1348   1.412       .  A
C939        C946   1.443       .  S
C940       C1347   1.412   1_545  A
C940        C941   1.400       .  A
C941        C942   1.403       .  A
C941        H944   1.085       .  S
C942       C1345   1.419       .  A
C942        C945   1.443       .  S
C945        N947   1.158       .  T
C946        N948   1.157       .  T
C949       C1358   1.400   1_545  A
C949        C954   1.403       .  A
C950       C1357   1.400       .  A
C950        C951   1.407       .  A
C950        H955   1.074       .  S
C951        C952   1.417       .  A
C951        C958   1.442       .  S
C952       C1361   1.400       .  A
C953       C1360   1.400       .  A
C953        C954   1.396       .  A
C953        H956   1.084       .  S
C954        C957   1.433       .  S
C957        N959   1.156       .  T
C958        N960   1.157       .  T
C961       C1245   1.496       .  S
C961       C1370   1.409       .  A
C961        C966   1.437       .  A
C962       C1369   1.408   1_545  A
C962        C963   1.418       .  A
C962        H967   1.077       .  S
C963       C1372   1.393   1_545  A
C963        C970   1.440       .  S
C964       C1371   1.394       .  A
C964        C965   1.378       .  A
C965        C966   1.393       .  A
C965        H968   1.072       .  S
C966        C969   1.438       .  S
C969        N971   1.158       .  T
C970       N1176   1.158       .  T
N972       C1174   1.158       .  T
C973        C974   1.403   1_655  A
C974        C975   1.385       .  A
C974        H979   1.085       .  S
C975        C976   1.399   1_455  A
C975       C1186   1.434       .  S
C977        C978   1.403       .  A
C977        H980   1.083       .  S
C978        C981   1.442       .  S
C981        N983   1.157       .  T
C982       C1179   1.434       .  S
C982        N984   1.153       .  T
C985        C986   1.412       .  A
C986        C987   1.419       .  A
C986        H991   1.084       .  S
C987        C988   1.414       .  A
C987        C994   1.437       .  S
C989        C990   1.413       .  A
C989        H992   1.084       .  S
C990        C993   1.438       .  S
C993        N995   1.157       .  T
C994        N996   1.156       .  T
C997       C1002   1.435       .  A
C998       H1003   1.076       .  S
C999       C1000   1.409       .  A
C1000      C1001   1.410       .  A
C1001      C1002   1.429       .  A
C1001      H1004   1.084       .  S
C1002      C1005   1.438       .  S
C1005      N1007   1.157       .  T
C1006      N1008   1.156       .  T
C1009      C1014   1.406       .  A
C1010      C1011   1.403       .  A
C1010      H1015   1.083       .  S
C1011      C1018   1.443       .  S
C1012      C1013   1.393       .  A
C1013      C1014   1.398       .  A
C1013      H1016   1.080       .  S
C1014      C1017   1.439       .  S
C1017      N1223   1.157       .  T
C1018      N1020   1.158       .  T
N1019      C1221   1.157       .  T
C1021      C1189   1.541       .  S
C1022      C1201   1.555       .  S
C1023      C1168   1.492   1_554  S
C1023      C1024   1.397   1_554  D
C1024      C1156   1.494       .  S
C1025      C1120   1.548       .  S
C1025      C1026   1.381   1_556  D
C1026      C1108   1.477   1_554  S
O1027      C1038   1.290       .  A
O1027     Eu1063   2.448       .  S
O1028      C1039   1.281       .  A
O1028     Eu1062   2.416       .  S
O1029      C1040   1.302       .  A
O1029     Eu1035   2.515       .  S
O1030      C1041   1.329       .  A
O1031      C1041   1.268   1_545  A
O1031     Eu1065   2.289       .  S
O1032      C1040   1.290       .  A
O1032     Eu1064   2.473       .  S
O1033      C1039   1.297       .  A
O1033     Eu1443   2.490       .  S
O1034     Eu1035   2.453   1_455  S
Eu1035     O1441   2.492   1_545  S
Eu1035     O1037   2.382       .  S
Eu1035     O1444   2.314   1_645  S
Eu1035     O1451   2.383   1_545  S
O1036     Eu1443   2.314   1_455  S
O1036     Eu1062   2.338   1_455  S
O1037     Eu1064   2.352       .  S
C1038      C1216   1.460       .  S
C1039      C1105   1.460       .  S
C1040      C1153   1.491       .  S
C1041      C1573   1.494       .  S
H1042      O1043   0.965       .  S
O1043     Eu1443   2.382       .  S
O1043     Eu1472   2.362       .  S
O1043     Eu1062   2.377       .  S
H1044      O1045   0.962       .  S
O1045     Eu1063   2.347       .  S
O1045     Eu1065   2.356       .  S
O1046      C1069   1.290       .  A
O1046     Eu1062   2.453       .  S
O1047      C1070   1.289       .  A
O1047     Eu1063   2.449       .  S
O1048      C1071   1.301       .  A
O1048     Eu1472   2.541       .  S
O1049      C1072   1.309       .  A
O1049     Eu1473   2.587       .  S
O1050      C1073   1.314       .  A
O1050     Eu1065   2.599       .  S
O1051      C1074   1.303       .  A
O1051     Eu1064   2.557       .  S
O1052      C1075   1.285   1_545  A
O1053      C1076   1.289       .  A
O1053     Eu1066   2.445       .  S
O1054      C1075   1.255       .  A
O1054     Eu1064   2.388   1_565  S
O1055      C1076   1.299       .  A
O1055     Eu1065   2.509       .  S
O1056      C1071   1.292       .  A
O1056     Eu1062   2.464       .  S
O1057     Eu1063   2.504       .  S
O1058      C1073   1.284       .  A
O1058     Eu1063   2.422       .  S
O1059     Eu1062   2.435       .  S
O1060     Eu1474   2.431       .  S
O1061      C1070   1.290       .  A
O1061     Eu1066   2.434       .  S
Eu1062     O1068   2.306       .  S
Eu1063     O1067   2.371       .  S
Eu1063     O1078   2.296       .  S
Eu1064     O1456   2.540   1_545  S
Eu1064     O1451   2.363   1_545  S
Eu1064     O1476   2.347   1_545  S
Eu1065     O1457   2.585   1_545  S
Eu1065     O1067   2.338       .  S
Eu1065     O1488   2.356   1_545  S
Eu1066     O1468   2.429   1_545  S
Eu1066     O1067   2.381       .  S
Eu1066     O1078   2.324       .  S
Eu1066     O1488   2.367   1_545  S
O1068     Eu1472   2.349       .  S
C1069      C1177   1.474       .  S
C1070      C1093   1.457       .  S
C1071      C1084   1.505       .  S
C1072      C1204   1.520       .  S
C1073      C1117   1.529       .  S
C1074      C1192   1.526       .  S
C1075      C1132   1.472   1_565  S
C1076      C1144   1.485       .  S
H1077      O1078   0.961       .  S
H1079      O1080   0.965       .  S
O1080     Eu1473   2.354       .  S
O1080     Eu1474   2.374       .  S
C1081      C1082   1.424       .  A
C1081      C1086   1.424       .  A
C1082      C1083   1.432       .  A
C1082      H1087   1.083       .  S
C1083      C1084   1.415       .  A
C1083      C1090   1.440       .  S
C1084      C1085   1.393       .  A
C1085      C1086   1.391       .  A
C1085      H1088   1.086       .  S
C1086      C1089   1.433       .  S
C1089      N1091   1.154       .  T
C1090      N1092   1.157       .  T
C1093      C1094   1.401       .  A
C1093      C1098   1.401       .  A
C1094      C1095   1.402       .  A
C1094      H1099   1.085       .  S
C1095      C1096   1.416       .  A
C1095      C1102   1.439       .  S
C1096      C1097   1.398       .  A
C1097      C1098   1.386       .  A
C1097      H1100   1.075       .  S
C1098      C1101   1.448       .  S
C1101      N1103   1.158       .  T
C1102      N1104   1.155       .  T
C1105      C1106   1.398       .  A
C1105      C1110   1.396       .  A
C1106      C1107   1.398       .  A
C1106      H1111   1.082       .  S
C1107      C1108   1.417       .  A
C1107      C1114   1.446       .  S
C1108      C1109   1.398       .  A
C1109      C1110   1.390       .  A
C1109      H1112   1.084       .  S
C1110      C1113   1.439       .  S
C1113      N1115   1.156       .  T
C1114      N1116   1.157       .  T
C1117      C1118   1.404       .  A
C1117      C1122   1.428       .  A
C1118      C1119   1.421       .  A
C1118      H1123   1.075       .  S
C1119      C1120   1.414       .  A
C1119      C1126   1.441       .  S
C1120      C1121   1.408       .  A
C1121      C1122   1.414       .  A
C1121      H1124   1.079       .  S
C1122      C1125   1.445       .  S
C1125      N1127   1.157       .  T
C1129      C1538   1.395       .  A
C1129      C1134   1.442       .  A
C1130      C1537   1.394   1_545  A
C1130      C1131   1.385       .  A
C1130      H1135   1.061       .  S
C1131      C1132   1.415       .  A
C1131      C1138   1.438       .  S
C1132      C1541   1.384   1_545  A
C1133      C1540   1.383       .  A
C1133      C1134   1.402       .  A
C1133      H1136   1.087       .  S
C1137      N1139   1.153       .  T
C1138      N1140   1.156       .  T
C1141      C1142   1.407       .  A
C1141      C1554   1.418       .  A
C1142      C1143   1.411       .  A
C1142      H1147   1.082       .  S
C1143      C1552   1.413       .  A
C1143      C1150   1.443       .  S
C1144      C1551   1.412   1_545  A
C1144      C1145   1.401       .  A
C1145      C1146   1.403       .  A
C1145      H1148   1.085       .  S
C1146      C1549   1.418       .  A
C1146      C1149   1.443       .  S
C1149      N1151   1.158       .  T
C1150      N1152   1.157       .  T
C1153      C1562   1.400   1_545  A
C1153      C1158   1.403       .  A
C1154      C1561   1.400       .  A
C1154      C1155   1.408       .  A
C1154      H1159   1.074       .  S
C1155      C1156   1.417       .  A
C1155      C1162   1.442       .  S
C1156      C1565   1.400       .  A
C1157      C1564   1.400       .  A
C1157      C1158   1.396       .  A
C1157      H1160   1.084       .  S
C1158      C1161   1.433       .  S
C1161      N1163   1.156       .  T
C1162      N1164   1.157       .  T
C1165      C1449   1.496       .  S
C1165      C1574   1.409       .  A
C1165      C1170   1.437       .  A
C1166      C1573   1.408   1_545  A
C1166      C1167   1.419       .  A
C1166      H1171   1.077       .  S
C1167      C1576   1.392   1_545  A
C1167      C1174   1.440       .  S
C1168      C1575   1.394       .  A
C1168      C1169   1.379       .  A
C1169      C1170   1.394       .  A
C1169      H1172   1.073       .  S
C1170      C1173   1.438       .  S
C1173      N1175   1.158       .  T
C1177      C1178   1.403   1_655  A
C1178      C1179   1.386       .  A
C1178      H1183   1.085       .  S
C1179      C1180   1.399   1_455  A
C1181      C1182   1.404       .  A
C1181      H1184   1.083       .  S
C1182      C1185   1.442       .  S
C1185      N1187   1.157       .  T
C1186      N1188   1.153       .  T
C1189      C1190   1.413       .  A
C1190      C1191   1.420       .  A
C1190      H1195   1.084       .  S
C1191      C1192   1.415       .  A
C1191      C1198   1.437       .  S
C1193      C1194   1.416       .  A
C1193      H1196   1.084       .  S
C1194      C1197   1.439       .  S
C1197      N1199   1.157       .  T
C1198      N1200   1.156       .  T
C1201      C1206   1.436       .  A
C1202      H1207   1.075       .  S
C1203      C1204   1.409       .  A
C1204      C1205   1.410       .  A
C1205      C1206   1.429       .  A
C1205      H1208   1.084       .  S
C1206      C1209   1.438       .  S
C1209      N1211   1.157       .  T
C1210      N1212   1.156       .  T
C1213      C1218   1.408       .  A
C1214      C1215   1.403       .  A
C1214      H1219   1.083       .  S
C1215      C1222   1.443       .  S
C1216      C1217   1.390       .  A
C1217      C1218   1.396       .  A
C1217      H1220   1.080       .  S
C1218      C1221   1.439   1_556  S
C1222      N1224   1.158       .  T
C1225      C1393   1.541       .  S
C1226      C1405   1.556       .  S
C1227      C1549   1.504       .  S
C1227      C1372   1.489   1_545  S
C1227      C1228   1.395   1_545  D
C1228      C1537   1.533       .  S
C1228      C1360   1.494   1_565  S
C1229      C1504   1.497       .  S
C1229      C1324   1.547       .  S
C1229      C1230   1.381       .  D
C1230      C1489   1.542       .  S
C1230      C1312   1.476       .  S
O1231      C1242   1.290       .  A
O1231     Eu1267   2.451       .  S
O1232      C1243   1.280       .  A
O1232     Eu1266   2.413       .  S
O1233      C1244   1.302       .  A
O1233     Eu1239   2.515       .  S
O1234      C1245   1.330       .  A
O1235      C1245   1.268       .  A
O1235     Eu1269   2.288       .  S
O1236      C1244   1.290       .  A
O1236     Eu1268   2.473       .  S
O1237      C1243   1.297       .  A
O1238     Eu1239   2.452   1_455  S
Eu1239     O1241   2.381       .  S
O1240     Eu1266   2.337   1_455  S
O1241     Eu1268   2.351       .  S
C1242      C1420   1.463       .  S
C1243      C1309   1.460       .  S
C1244      C1357   1.492       .  S
H1246      O1247   0.965       .  S
O1247     Eu1266   2.377       .  S
H1248      O1249   0.961       .  S
O1249     Eu1267   2.348       .  S
O1249     Eu1269   2.353       .  S
O1250      C1273   1.289       .  A
O1250     Eu1266   2.451       .  S
O1251      C1274   1.286       .  A
O1251     Eu1267   2.440       .  S
O1252      C1275   1.301       .  A
O1253      C1276   1.309       .  A
O1254      C1277   1.313       .  A
O1254     Eu1269   2.594       .  S
O1255      C1278   1.303       .  A
O1255     Eu1268   2.555       .  S
O1256      C1279   1.286       .  A
O1257      C1280   1.287       .  A
O1257     Eu1270   2.438       .  S
O1258      C1279   1.255       .  A
O1258     Eu1268   2.386       .  S
O1259      C1280   1.299       .  A
O1259     Eu1269   2.511       .  S
O1260      C1275   1.292       .  A
O1260     Eu1266   2.462       .  S
O1261     Eu1267   2.487       .  S
O1262      C1277   1.287       .  A
O1262     Eu1267   2.437       .  S
O1263     Eu1266   2.436       .  S
O1265      C1274   1.287       .  A
O1265     Eu1270   2.430       .  S
Eu1266     O1272   2.306       .  S
Eu1267     O1271   2.371       .  S
Eu1267     O1282   2.341       .  S
Eu1269     O1271   2.343       .  S
Eu1270     O1271   2.369       .  S
Eu1270     O1282   2.356       .  S
C1273      C1381   1.473       .  S
C1274      C1297   1.455       .  S
C1275      C1288   1.503       .  S
C1276      C1408   1.521       .  S
C1277      C1321   1.531       .  S
C1278      C1396   1.526       .  S
C1279      C1336   1.474       .  S
C1280      C1348   1.485       .  S
H1281      O1282   0.962       .  S
H1283      O1284   0.965       .  S
C1285      C1434   1.541   1_554  S
C1285      C1286   1.424       .  A
C1285      C1290   1.424       .  A
C1286      C1287   1.432       .  A
C1286      H1291   1.083       .  S
C1287      C1288   1.414       .  A
C1287      C1294   1.440       .  S
C1288      C1289   1.393       .  A
C1289      C1290   1.390       .  A
C1289      H1292   1.086       .  S
C1290      C1293   1.433       .  S
C1293      N1295   1.154       .  T
C1294      N1296   1.157       .  T
C1297      C1298   1.400       .  A
C1297      C1302   1.401       .  A
C1298      C1299   1.401       .  A
C1298      H1303   1.085       .  S
C1299      C1300   1.416       .  A
C1299      C1306   1.439       .  S
C1300      C1433   1.494   1_554  S
C1300      C1301   1.398       .  A
C1301      C1302   1.387       .  A
C1301      H1304   1.077   1_554  S
C1302      C1305   1.448       .  S
C1305      N1307   1.157       .  T
C1306      N1308   1.155       .  T
C1309      C1310   1.398       .  A
C1309      C1314   1.396       .  A
C1310      C1311   1.398       .  A
C1310      H1315   1.082       .  S
C1311      C1312   1.417       .  A
C1311      C1318   1.446       .  S
C1312      C1313   1.398       .  A
C1313      C1314   1.390       .  A
C1313      H1316   1.083       .  S
C1314      C1317   1.439       .  S
C1317      N1319   1.156       .  T
C1318      N1320   1.157       .  T
C1321      C1322   1.407       .  A
C1321      C1326   1.429       .  A
C1322      C1323   1.421       .  A
C1322      H1327   1.077       .  S
C1323      C1324   1.413       .  A
C1323      C1330   1.440       .  S
C1324      C1325   1.408       .  A
C1325      C1326   1.415       .  A
C1325      H1328   1.080       .  S
C1326      C1329   1.444       .  S
C1329      N1331   1.157       .  T
C1330      N1536   1.158       .  T
N1332      C1534   1.158   1_554  T
C1333      C1432   1.532   1_554  S
C1333      C1338   1.441   1_554  A
C1334      C1335   1.386       .  A
C1334      H1339   1.060       .  S
C1335      C1336   1.416       .  A
C1335      C1342   1.437       .  S
C1337      C1338   1.402   1_554  A
C1337      H1340   1.087       .  S
C1338      C1545   1.428       .  S
C1341      C1542   1.428       .  S
C1341      N1343   1.153       .  T
C1342      N1344   1.156       .  T
C1345      C1431   1.504   1_545  S
C1345      C1346   1.407   1_545  A
C1346      C1347   1.410       .  A
C1346      H1351   1.083       .  S
C1347      C1354   1.443       .  S
C1348      C1349   1.401       .  A
C1349      C1350   1.404       .  A
C1349      H1352   1.085       .  S
C1350      C1353   1.443       .  S
C1353      N1355   1.158       .  T
C1354      N1356   1.157       .  T
C1357      C1362   1.404       .  A
C1358      C1359   1.408       .  A
C1358      H1363   1.074       .  S
C1359      C1360   1.417   1_565  A
C1359      C1366   1.442       .  S
C1361      C1362   1.396       .  A
C1361      H1364   1.084       .  S
C1362      C1365   1.433       .  S
C1365      N1367   1.156       .  T
C1366      N1368   1.157       .  T
C1369      C1374   1.436       .  A
C1370      C1371   1.419       .  A
C1370      H1375   1.077       .  S
C1371      C1378   1.440       .  S
C1372      C1373   1.379       .  A
C1373      C1374   1.393       .  A
C1373      H1376   1.071       .  S
C1374      C1377   1.438       .  S
C1377      N1379   1.158       .  T
C1378      N1584   1.158       .  T
N1380      C1582   1.158       .  T
C1381      C1382   1.403   1_655  A
C1382      C1383   1.385       .  A
C1382      H1387   1.085       .  S
C1383      C1384   1.399   1_455  A
C1383      C1594   1.434       .  S
C1385      C1386   1.404       .  A
C1385      H1388   1.083       .  S
C1386      C1389   1.443       .  S
C1389      N1391   1.158       .  T
C1390      C1587   1.433       .  S
C1390      N1392   1.152       .  T
C1393      C1394   1.413       .  A
C1394      C1395   1.420       .  A
C1394      H1399   1.084       .  S
C1395      C1396   1.415       .  A
C1395      C1402   1.437       .  S
C1397      C1398   1.413       .  A
C1397      H1400   1.084       .  S
C1398      C1401   1.438       .  S
C1401      N1403   1.157       .  T
C1402      N1404   1.156       .  T
C1405      C1410   1.436       .  A
C1406      H1411   1.076       .  S
C1407      C1408   1.409       .  A
C1408      C1409   1.411       .  A
C1409      C1410   1.430       .  A
C1409      H1412   1.084       .  S
C1410      C1413   1.438       .  S
C1413      N1415   1.157       .  T
C1414      N1416   1.156       .  T
C1417      C1422   1.407       .  A
C1418      C1419   1.404       .  A
C1418      H1423   1.083       .  S
C1419      C1426   1.443       .  S
C1420      C1421   1.392       .  A
C1421      C1422   1.397       .  A
C1421      H1424   1.081       .  S
C1422      C1425   1.438       .  S
C1425      N1631   1.157       .  T
C1426      N1428   1.158       .  T
N1427      C1629   1.157   1_554  T
C1429      C1597   1.542       .  S
C1430      C1609   1.556       .  S
C1431      C1576   1.488   1_554  S
C1431      C1432   1.395   1_554  D
C1432      C1564   1.493   1_565  S
C1433      C1528   1.547       .  S
C1433      C1434   1.380       .  D
C1434      C1516   1.474       .  S
O1435      C1446   1.291       .  A
O1435     Eu1471   2.453       .  S
O1436      C1447   1.280       .  A
O1436     Eu1470   2.407       .  S
O1437      C1448   1.302       .  A
O1437     Eu1443   2.514       .  S
O1438      C1449   1.330       .  A
O1439      C1449   1.268       .  A
O1439     Eu1473   2.290       .  S
O1440      C1448   1.291       .  A
O1440     Eu1472   2.475       .  S
O1441      C1447   1.298       .  A
O1442     Eu1443   2.450   1_455  S
Eu1443     O1445   2.382       .  S
O1444     Eu1470   2.339   1_455  S
O1445     Eu1472   2.352       .  S
C1446      C1624   1.465       .  S
C1447      C1513   1.457       .  S
C1448      C1561   1.492       .  S
H1450      O1451   0.965       .  S
O1451     Eu1470   2.378       .  S
H1452      O1453   0.961       .  S
O1453     Eu1471   2.349       .  S
O1453     Eu1473   2.355       .  S
O1454      C1477   1.289       .  A
O1454     Eu1470   2.453       .  S
O1455      C1478   1.287       .  A
O1455     Eu1471   2.442       .  S
O1456      C1479   1.301       .  A
O1457      C1480   1.309       .  A
O1458      C1481   1.313       .  A
O1458     Eu1473   2.594       .  S
O1459      C1482   1.303       .  A
O1459     Eu1472   2.557       .  S
O1460      C1483   1.286       .  A
O1461      C1484   1.287       .  A
O1461     Eu1474   2.438       .  S
O1462      C1483   1.255       .  A
O1462     Eu1472   2.387       .  S
O1463      C1484   1.300       .  A
O1463     Eu1473   2.513       .  S
O1464      C1479   1.293       .  A
O1464     Eu1470   2.465       .  S
O1465     Eu1471   2.485       .  S
O1466      C1481   1.286       .  A
O1466     Eu1471   2.435       .  S
O1467     Eu1470   2.437       .  S
O1469      C1478   1.287       .  A
O1469     Eu1474   2.432       .  S
Eu1470     O1476   2.305       .  S
Eu1471     O1475   2.371       .  S
Eu1471     O1486   2.341       .  S
Eu1473     O1475   2.344       .  S
Eu1474     O1475   2.369       .  S
Eu1474     O1486   2.355       .  S
C1477      C1585   1.474       .  S
C1478      C1501   1.457       .  S
C1479      C1492   1.505       .  S
C1480      C1612   1.520       .  S
C1481      C1525   1.530       .  S
C1482      C1600   1.527       .  S
C1483      C1540   1.474       .  S
C1484      C1552   1.486       .  S
H1485      O1486   0.962       .  S
H1487      O1488   0.965       .  S
C1489      C1490   1.424       .  A
C1489      C1494   1.424       .  A
C1490      C1491   1.432       .  A
C1490      H1495   1.083       .  S
C1491      C1492   1.415       .  A
C1491      C1498   1.440       .  S
C1492      C1493   1.393       .  A
C1493      C1494   1.391       .  A
C1493      H1496   1.086       .  S
C1494      C1497   1.433       .  S
C1497      N1499   1.154       .  T
C1498      N1500   1.157       .  T
C1501      C1502   1.401       .  A
C1501      C1506   1.401       .  A
C1502      C1503   1.402       .  A
C1502      H1507   1.085       .  S
C1503      C1504   1.416       .  A
C1503      C1510   1.439       .  S
C1504      C1505   1.399       .  A
C1505      C1506   1.387       .  A
C1505      H1508   1.076       .  S
C1506      C1509   1.448       .  S
C1509      N1511   1.157       .  T
C1510      N1512   1.155       .  T
C1513      C1514   1.397       .  A
C1513      C1518   1.395       .  A
C1514      C1515   1.397       .  A
C1514      H1519   1.082       .  S
C1515      C1516   1.416       .  A
C1515      C1522   1.446       .  S
C1516      C1517   1.398       .  A
C1517      C1518   1.389       .  A
C1517      H1520   1.083       .  S
C1518      C1521   1.440       .  S
C1521      N1523   1.156       .  T
C1522      N1524   1.157       .  T
C1525      C1526   1.406       .  A
C1525      C1530   1.428       .  A
C1526      C1527   1.421       .  A
C1526      H1531   1.077       .  S
C1527      C1528   1.413       .  A
C1527      C1534   1.440       .  S
C1528      C1529   1.408       .  A
C1529      C1530   1.414       .  A
C1529      H1532   1.080       .  S
C1530      C1533   1.444       .  S
C1533      N1535   1.157       .  T
C1537      C1542   1.441       .  A
C1538      C1539   1.386       .  A
C1538      H1543   1.060       .  S
C1539      C1540   1.415       .  A
C1539      C1546   1.437       .  S
C1541      C1542   1.402       .  A
C1541      H1544   1.087       .  S
C1545      N1547   1.153       .  T
C1546      N1548   1.156       .  T
C1549      C1550   1.407   1_545  A
C1550      C1551   1.411       .  A
C1550      H1555   1.083       .  S
C1551      C1558   1.443       .  S
C1552      C1553   1.401       .  A
C1553      C1554   1.404       .  A
C1553      H1556   1.085       .  S
C1554      C1557   1.443       .  S
C1557      N1559   1.158       .  T
C1558      N1560   1.157       .  T
C1561      C1566   1.404       .  A
C1562      C1563   1.407       .  A
C1562      H1567   1.075       .  S
C1563      C1564   1.417   1_565  A
C1563      C1570   1.442       .  S
C1565      C1566   1.397       .  A
C1565      H1568   1.084       .  S
C1566      C1569   1.433       .  S
C1569      N1571   1.156       .  T
C1570      N1572   1.157       .  T
C1573      C1578   1.437       .  A
C1574      C1575   1.419       .  A
C1574      H1579   1.077       .  S
C1575      C1582   1.440       .  S
C1576      C1577   1.377       .  A
C1577      C1578   1.393       .  A
C1577      H1580   1.072       .  S
C1578      C1581   1.438       .  S
C1581      N1583   1.158       .  T
C1585      C1586   1.403   1_655  A
C1586      C1587   1.384       .  A
C1586      H1591   1.085       .  S
C1587      C1588   1.398   1_455  A
C1589      C1590   1.404       .  A
C1589      H1592   1.083       .  S
C1590      C1593   1.442       .  S
C1593      N1595   1.157       .  T
C1594      N1596   1.153       .  T
C1597      C1598   1.412       .  A
C1598      C1599   1.420       .  A
C1598      H1603   1.084       .  S
C1599      C1600   1.415       .  A
C1599      C1606   1.437       .  S
C1601      C1602   1.412       .  A
C1601      H1604   1.084       .  S
C1602      C1605   1.438       .  S
C1605      N1607   1.157       .  T
C1606      N1608   1.156       .  T
C1609      C1614   1.436       .  A
C1610      H1615   1.076       .  S
C1611      C1612   1.409       .  A
C1612      C1613   1.411       .  A
C1613      C1614   1.429       .  A
C1613      H1616   1.084       .  S
C1614      C1617   1.438       .  S
C1617      N1619   1.157       .  T
C1618      N1620   1.156       .  T
C1621      C1626   1.408       .  A
C1622      C1623   1.403       .  A
C1622      H1627   1.083       .  S
C1623      C1630   1.443       .  S
C1624      C1625   1.392       .  A
C1625      C1626   1.397       .  A
C1625      H1628   1.081       .  S
C1626      C1629   1.438       .  S
C1630      N1632   1.158       .  T
