geometry optimzed in LAMMPS
_audit_creation_date              2020-11-30 
_audit_creation_method            'lammps2cif' 
_symmetry_space_group_name_H-M    'P1' 
_symmetry_Int_Tables_number       1 
_symmetry_cell_setting            triclinic 
loop_ 
_symmetry_equiv_pos_as_xyz 
  x,y,z 
_cell_length_a                    27.61459112 
_cell_length_b                    27.871197313991175 
_cell_length_c                    27.251270510629517 
_cell_angle_alpha                 90.0516304464153 
_cell_angle_beta                  90.10682532243821 
_cell_angle_gamma                 91.87364024033216 
loop_ 
_atom_site_label 
_atom_site_type_symbol 
_atom_site_fract_x 
_atom_site_fract_y 
_atom_site_fract_z 
_atom_site_charge 
O1          O  0.54346918  0.29527530  0.05413706    -0.71400
O2          O  0.44582063  0.30473417  0.95694059    -0.71600
O3          O  0.44616554  0.29972604  0.05536897    -0.71500
O4          O  0.54305870  0.30024004  0.95593101    -0.71500
O5          O  0.53653726  0.22236723  0.95189640    -0.71500
O6          O  0.44020953  0.22197588  0.05063857    -0.71500
O7          O  0.43990566  0.22720578  0.95283688    -0.71400
O8          O  0.53738495  0.21755239  0.04973094    -0.71600
V9          V  0.49450334  0.29855069  0.00554955     1.35200
V10         V  0.48859479  0.22382953  0.00144694     1.35200
C11         C  0.55736021  0.25481364  0.06819595     0.77800
C12         C  0.42626034  0.26756415  0.93797928     0.77900
C13         C  0.42597294  0.26060677  0.06904686     0.77800
C14         C  0.55633415  0.26121416  0.93734736     0.77700
O15         O  0.28937899  0.54790302  0.04875131    -0.71400
O16         O  0.28768808  0.44726729  0.95403254    -0.71600
O17         O  0.29366070  0.54354183  0.95061649    -0.71500
O18         O  0.28367209  0.45116352  0.05298410    -0.71500
O19         O  0.20527964  0.45313795  0.04976985    -0.71500
O20         O  0.21508510  0.54490304  0.94640437    -0.71500
O21         O  0.20904866  0.44868054  0.95121496    -0.71400
O22         O  0.21124563  0.54996559  0.04460823    -0.71600
V23         V  0.28707023  0.49736712  0.00162881     1.35200
V24         V  0.21168358  0.49909721  0.99817291     1.35200
C25         C  0.25065944  0.56693262  0.06226473     0.77800
C26         C  0.24802008  0.43141016  0.93610067     0.77900
C27         C  0.25607015  0.55997837  0.93126755     0.77800
C28         C  0.24292028  0.43648086  0.06907811     0.77700
O29         O  0.45906053  0.78540263  0.94943890    -0.71400
O30         O  0.55203903  0.78569084  0.05154513    -0.71600
O31         O  0.55558583  0.78094752  0.95376234    -0.71500
O32         O  0.45467152  0.79012343  0.04745196    -0.71500
O33         O  0.44993016  0.71231605  0.05303258    -0.71500
O34         O  0.54788251  0.70328204  0.95597850    -0.71500
O35         O  0.54758187  0.70804893  0.05418762    -0.71400
O36         O  0.45121209  0.70790812  0.95423609    -0.71600
V37         V  0.50514896  0.78402108  0.00079494     1.35200
V38         V  0.49916815  0.70934820  0.00443780     1.35200
C39         C  0.43947052  0.74674584  0.93403028     0.77800
C40         C  0.56717169  0.74698489  0.06920783     0.77900
C41         C  0.56843985  0.74051567  0.93830415     0.77800
C42         C  0.43508642  0.75280292  0.06605454     0.77700
O43         O  0.80314980  0.45576291  0.96219191    -0.71400
O44         O  0.80612608  0.54931118  0.06407845    -0.71600
O45         O  0.80207218  0.45144234  0.06113399    -0.71500
O46         O  0.80664331  0.55202454  0.96540293    -0.71500
O47         O  0.72796377  0.55201950  0.96499116    -0.71500
O48         O  0.72347117  0.45198836  0.06037723    -0.71500
O49         O  0.72749500  0.54918361  0.06389429    -0.71400
O50         O  0.72484465  0.45621224  0.96124210    -0.71600
V51         V  0.80298952  0.50209133  0.01346793     1.35200
V52         V  0.72750123  0.50233948  0.01286866     1.35200
C53         C  0.76368428  0.44082109  0.94323702     0.77800
C54         C  0.76734280  0.56595085  0.08064340     0.77900
C55         C  0.76185811  0.43379324  0.07618263     0.77800
C56         C  0.76784467  0.56835549  0.94827155     0.77700
O57         O  0.29674456  0.04814410  0.54761564    -0.71400
O58         O  0.28471870  0.95159970  0.44896988    -0.71600
O59         O  0.28975886  0.04801725  0.44922530    -0.71500
O60         O  0.29141801  0.95080755  0.54724240    -0.71500
O61         O  0.21320713  0.95124241  0.55190502    -0.71500
O62         O  0.21136571  0.04981007  0.45535006    -0.71500
O63         O  0.20650798  0.95355641  0.45360422    -0.71400
O64         O  0.21840866  0.04823196  0.55407495    -0.71600
V65         V  0.28915710  0.99964506  0.49851010     1.35200
V66         V  0.21390684  0.00076839  0.50376575     1.35200
C67         C  0.25953176  0.06476221  0.56760414     0.77800
C68         C  0.24359329  0.93661635  0.43375799     0.77900
C69         C  0.25017052  0.06520504  0.43548468     0.77800
C70         C  0.25252012  0.93347317  0.56562949     0.77700
O71         O  0.95991726  0.79937834  0.45484811    -0.71400
O72         O  0.05639274  0.78774983  0.55333018    -0.71600
O73         O  0.05634742  0.79288885  0.45438469    -0.71500
O74         O  0.95926095  0.79458285  0.55302015    -0.71500
O75         O  0.95314442  0.71698537  0.55062123    -0.71500
O76         O  0.04691896  0.71530516  0.44886164    -0.71500
O77         O  0.05027293  0.71006480  0.54713685    -0.71400
O78         O  0.95033269  0.72167132  0.45288273    -0.71600
V79         V  0.00796539  0.79216594  0.50394057     1.35200
V80         V  0.00039427  0.71751436  0.50004685     1.35200
C81         C  0.93825384  0.76236379  0.43780661     0.77800
C82         C  0.06994721  0.74687659  0.56672603     0.77900
C83         C  0.06733304  0.75389891  0.43418163     0.77800
C84         C  0.93894979  0.75616579  0.56824108     0.77700
O85         O  0.77774694  0.95221814  0.46346563    -0.71400
O86         O  0.77761728  0.05040405  0.56019559    -0.71600
O87         O  0.77887811  0.95399330  0.56236498    -0.71500
O88         O  0.77528783  0.04774074  0.46052969    -0.71500
O89         O  0.69687626  0.04291076  0.46099314    -0.71500
O90         O  0.70020154  0.95063568  0.56369678    -0.71500
O91         O  0.69901793  0.04765625  0.56045093    -0.71400
O92         O  0.69910801  0.94681159  0.46511704    -0.71600
V93         V  0.77582448  0.00110439  0.51179688     1.35200
V94         V  0.70030218  0.99722051  0.51275413     1.35200
C95         C  0.73873026  0.93318979  0.44738803     0.77800
C96         C  0.73845340  0.06602069  0.57682634     0.77900
C97         C  0.73997790  0.93598793  0.57994702     0.77800
C98         C  0.73538424  0.06000011  0.44193024     0.77700
O99         O  0.04015642  0.27835515  0.54979752    -0.71400
O100        O  0.94319295  0.27545539  0.45070182    -0.71600
O101        O  0.94262355  0.28030656  0.54912775    -0.71500
O102        O  0.04015171  0.27447245  0.45202784    -0.71500
O103        O  0.03395310  0.19654073  0.45220851    -0.71500
O104        O  0.94203636  0.20267679  0.55598937    -0.71500
O105        O  0.93694326  0.19772672  0.45749599    -0.71400
O106        O  0.03926057  0.20066542  0.55026358    -0.71600
V107        V  0.99134951  0.27566003  0.50055748     1.35200
V108        V  0.98796472  0.20085959  0.50399754     1.35200
C109        C  0.05764284  0.23986728  0.56570468     0.77800
C110        C  0.92370700  0.23589797  0.43739660     0.77900
C111        C  0.92646774  0.24265269  0.56995133     0.77800
C112        C  0.05370137  0.23477469  0.43562495     0.77700
C113        C  0.27352591  0.25221465  0.21380427     0.02700
C114        C  0.23373930  0.28288281  0.21267005     0.02600
C115        C  0.19715771  0.27702305  0.24805290    -0.17900
C116        C  0.19826868  0.23970343  0.28270415     0.02700
C117        C  0.23761486  0.20822055  0.28276917     0.02600
C118        C  0.27495823  0.21527734  0.24857370    -0.17900
H119        H  0.30585428  0.19226324  0.24941378     0.04700
H120        H  0.16788937  0.30197673  0.24910583     0.04700
C121        C  0.75112523  0.27020921  0.20977159     0.02700
C122        C  0.71391806  0.23412729  0.20623369     0.02600
C123        C  0.71222480  0.19600442  0.23999118    -0.17900
C124        C  0.74815767  0.19131354  0.27595982     0.02700
C125        C  0.78670899  0.22627694  0.27800267     0.02600
C126        C  0.78751446  0.26510320  0.24502926    -0.17900
H127        H  0.81669657  0.29196512  0.24726315     0.04700
H128        H  0.68192844  0.17029671  0.23901790     0.04700
C129        C  0.71227478  0.25506610  0.79714510     0.02700
C130        C  0.74581848  0.29444324  0.79122022     0.02600
C131        C  0.77976804  0.29294124  0.75300108    -0.17900
C132        C  0.78080713  0.25398546  0.72065503     0.02700
C133        C  0.74789054  0.21459573  0.72678828     0.02600
C134        C  0.71360812  0.21591875  0.76455168    -0.17900
H135        H  0.68747804  0.18628046  0.76844137     0.04700
H136        H  0.80607197  0.32235287  0.74856893     0.04700
C137        C  0.72578795  0.76299330  0.20904244     0.02700
C138        C  0.76473390  0.73099999  0.21021288     0.02600
C139        C  0.79951943  0.73584360  0.24746914    -0.17900
C140        C  0.79625051  0.77128745  0.28375654     0.02700
C141        C  0.75655360  0.80208026  0.28384654     0.02600
C142        C  0.72179070  0.79759436  0.24639306    -0.17900
H143        H  0.69116288  0.82096479  0.24648300     0.04700
H144        H  0.82896083  0.71105256  0.24890716     0.04700
C145        C  0.71895566  0.73836899  0.79175104     0.02700
C146        C  0.75639761  0.70505517  0.78871489     0.02600
C147        C  0.78955736  0.70904458  0.74976178    -0.17900
C148        C  0.78494052  0.74429794  0.71313394     0.02700
C149        C  0.74721435  0.77740898  0.71661738     0.02600
C150        C  0.71460964  0.77379106  0.75570828    -0.17900
H151        H  0.68588256  0.79927615  0.75853629     0.04700
H152        H  0.81966271  0.68512063  0.74824040     0.04700
C153        C  0.27424021  0.76536732  0.19963422     0.02700
C154        C  0.23970023  0.72639913  0.20037099     0.02600
C155        C  0.20535096  0.72412730  0.23836427    -0.17900
C156        C  0.20421497  0.75984312  0.27460108     0.02700
C157        C  0.23964700  0.79754980  0.27471089     0.02600
C158        C  0.27330040  0.80062718  0.23638652    -0.17900
H159        H  0.29981385  0.83016285  0.23568297     0.04700
H160        H  0.18020837  0.69363981  0.24087738     0.04700
C161        C  0.30493613  0.73634796  0.77164915     0.02700
C162        C  0.26806413  0.69964288  0.77401046     0.02600
C163        C  0.22966108  0.70051904  0.74030975    -0.17900
C164        C  0.22831604  0.73535681  0.70339245     0.02700
C165        C  0.26494235  0.77205696  0.70096621     0.02600
C166        C  0.30232700  0.77244809  0.73586446    -0.17900
H167        H  0.32966909  0.80126837  0.73525323     0.04700
H168        H  0.20037151  0.67379031  0.74277638     0.04700
C169        C  0.24975875  0.29470238  0.77673884     0.02700
C170        C  0.28965784  0.26408703  0.77664851     0.02600
C171        C  0.29540243  0.23183345  0.73780584    -0.17900
C172        C  0.26044114  0.22655928  0.70082333     0.02700
C173        C  0.21978834  0.25642617  0.70124237     0.02600
C174        C  0.21497409  0.29006756  0.73933846    -0.17900
H175        H  0.18346703  0.31223404  0.74023264     0.04700
H176        H  0.32668430  0.20938284  0.73713904     0.04700
C177        C  0.15186637  0.20968246  0.66326289    -0.05400
C178        C  0.18066181  0.25203111  0.66382898     0.00500
C179        C  0.16908184  0.28988661  0.63157138    -0.08100
C180        C  0.12768621  0.28456905  0.60193341    -0.05400
C181        C  0.09973649  0.24153471  0.60000632     0.00500
C182        C  0.11366200  0.20226131  0.62966492    -0.08000
C183        C  0.08962557  0.15250569  0.62614231     0.62400
H184        H  0.15936691  0.18225757  0.68985073     0.13100
H185        H  0.11825823  0.31423083  0.57843735     0.13100
C186        C  0.19859449  0.33649530  0.62607271     0.62700
F187        F  0.10885974  0.12079001  0.65942229    -0.22500
F188        F  0.09649042  0.13394337  0.57967053    -0.19800
F189        F  0.04076368  0.15470387  0.63566072    -0.19500
F190        F  0.20943811  0.34370089  0.57700972    -0.19600
F191        F  0.24184212  0.33706911  0.65154040    -0.19900
F192        F  0.17140332  0.37413863  0.64229553    -0.22600
C193        C  0.17163801  0.25576334  0.36718712    -0.05400
C194        C  0.15992927  0.23672344  0.32081189     0.00500
C195        C  0.11255811  0.21693327  0.31228531    -0.08100
C196        C  0.07936825  0.21537840  0.35139118    -0.05400
C197        C  0.09161850  0.23374245  0.39777571     0.00500
C198        C  0.13869035  0.25351867  0.40634414    -0.08000
C199        C  0.15453491  0.27061810  0.45703072     0.62400
H200        H  0.20700016  0.27285277  0.37243862     0.13100
H201        H  0.04292435  0.20085525  0.34524532     0.13100
C202        C  0.09411620  0.19808091  0.26319248     0.62700
F203        F  0.20327303  0.28385099  0.45838938    -0.22500
F204        F  0.14671804  0.23399396  0.49059870    -0.19800
F205        F  0.12853102  0.30992081  0.47086705    -0.19500
F206        F  0.12804461  0.20150542  0.22618331    -0.19600
F207        F  0.05451606  0.22392303  0.24901642    -0.19900
F208        F  0.07967206  0.15034332  0.26814904    -0.22600
C209        C  0.90557013  0.23313627  0.34942083    -0.05400
C210        C  0.88808651  0.23383023  0.39753233     0.00500
C211        C  0.83783265  0.23087060  0.40650782    -0.08100
C212        C  0.80617262  0.22884343  0.36628085    -0.05400
C213        C  0.82335068  0.22650906  0.31784183     0.00500
C214        C  0.87416061  0.22809278  0.30909559    -0.08000
C215        C  0.89764824  0.22388990  0.25889906     0.62400
H216        H  0.94442537  0.23505105  0.34340089     0.13100
H217        H  0.76747678  0.22944305  0.37238629     0.13100
C218        C  0.81800088  0.23096829  0.45829141     0.62700
F219        F  0.93328856  0.19013718  0.26083973    -0.22500
F220        F  0.91891016  0.26774035  0.24626802    -0.19800
F221        F  0.86561651  0.20981383  0.22229544    -0.19500
F222        F  0.83277629  0.27308238  0.48134861    -0.19600
F223        F  0.83517536  0.19231695  0.48408479    -0.19900
F224        F  0.76785480  0.22782650  0.45899447    -0.22600
C225        C  0.85019072  0.27490349  0.60188442    -0.05400
C226        C  0.89008649  0.24578867  0.60950312     0.00500
C227        C  0.89600476  0.22323543  0.65556986    -0.08100
C228        C  0.85973774  0.22759184  0.69110895    -0.05400
C229        C  0.81842423  0.25394435  0.68216077     0.00500
C230        C  0.81413835  0.27972836  0.63779232    -0.08000
C231        C  0.77328276  0.31401151  0.62944809     0.62400
H232        H  0.84794211  0.29462242  0.56788814     0.13100
H233        H  0.86351737  0.21077142  0.72658006     0.13100
C234        C  0.94144142  0.19680556  0.66806986     0.62700
F235        F  0.77239929  0.33050261  0.58156393    -0.22500
F236        F  0.77947041  0.35316120  0.66026811    -0.19800
F237        F  0.72896855  0.29169998  0.63908116    -0.19500
F238        F  0.98168502  0.22625204  0.65876684    -0.19600
F239        F  0.94325813  0.15555589  0.64006798    -0.19900
F240        F  0.94289438  0.18368601  0.71702968    -0.22600
C241        C  0.71433349  0.17952991  0.65061744    -0.05400
C242        C  0.74529176  0.17429830  0.69088024     0.00500
C243        C  0.77310824  0.13247053  0.69442821    -0.08100
C244        C  0.77027099  0.09855462  0.65603765    -0.05400
C245        C  0.73940729  0.10396452  0.61547215     0.00500
C246        C  0.71160133  0.14569523  0.61232165    -0.08000
C247        C  0.68220125  0.15646815  0.56702000     0.62400
H248        H  0.69248774  0.21098667  0.64913051     0.13100
H249        H  0.79219594  0.06707976  0.65810497     0.13100
C250        C  0.80538012  0.12085177  0.73769963     0.62700
F251        F  0.66241183  0.20144422  0.56907799    -0.22500
F252        F  0.64462190  0.12286030  0.56190178    -0.19800
F253        F  0.71223496  0.15534544  0.52653412    -0.19500
F254        F  0.78988193  0.07744455  0.75775555    -0.19600
F255        F  0.80501724  0.15503221  0.77443465    -0.19900
F256        F  0.85252379  0.11663344  0.72157375    -0.22600
C257        C  0.70091413  0.15178335  0.34326946    -0.05400
C258        C  0.74239189  0.15216634  0.31347251     0.00500
C259        C  0.77805951  0.11786531  0.32271695    -0.08100
C260        C  0.77515165  0.09063916  0.36609023    -0.05400
C261        C  0.73473180  0.09156424  0.39740837     0.00500
C262        C  0.69513612  0.12027478  0.38357131    -0.08000
C263        C  0.64664602  0.11756837  0.40984063     0.62400
H264        H  0.67297553  0.17684404  0.33471613     0.13100
H265        H  0.80396041  0.06629949  0.37413460     0.13100
C266        C  0.81815130  0.10640818  0.28712026     0.62700
F267        F  0.61448370  0.14998281  0.39109574    -0.22500
F268        F  0.65272360  0.12759926  0.45898034    -0.19800
F269        F  0.62585055  0.07205763  0.40441201    -0.19500
F270        F  0.81680576  0.05753225  0.27789857    -0.19600
F271        F  0.81353670  0.12943082  0.24259553    -0.19900
F272        F  0.86253381  0.11905227  0.30769029    -0.22600
C273        C  0.72639699  0.82129505  0.36692081    -0.05400
C274        C  0.74969987  0.83758331  0.32391529     0.00500
C275        C  0.76720939  0.88597946  0.32138452    -0.08100
C276        C  0.76205476  0.91566822  0.36255759    -0.05400
C277        C  0.74019053  0.89900813  0.40590281     0.00500
C278        C  0.72255751  0.85087044  0.40865723    -0.08000
C279        C  0.70323093  0.83004590  0.45636116     0.62400
H280        H  0.71261743  0.78449880  0.36805843     0.13100
H281        H  0.77555151  0.95265038  0.36087471     0.13100
C282        C  0.79159335  0.90882435  0.27700773     0.62700
F283        F  0.69025880  0.78182093  0.45191183    -0.22500
F284        F  0.66283993  0.85422812  0.47111109    -0.19800
F285        F  0.73882393  0.83457247  0.49197042    -0.19500
F286        F  0.76591846  0.94825177  0.26261048    -0.19600
F287        F  0.79426758  0.87832751  0.23742791    -0.19900
F288        F  0.83816601  0.92402437  0.28956760    -0.22600
C289        C  0.71561130  0.85364892  0.60542602    -0.05400
C290        C  0.74056722  0.89690742  0.61674386     0.00500
C291        C  0.76422402  0.90190929  0.66264670    -0.08100
C292        C  0.76429836  0.86221054  0.69455712    -0.05400
C293        C  0.74231373  0.81781590  0.68161028     0.00500
C294        C  0.71583901  0.81384874  0.63708057    -0.08000
C295        C  0.68674965  0.76938202  0.62107944     0.62400
H296        H  0.69557155  0.85086070  0.57128428     0.13100
H297        H  0.78235376  0.86519912  0.72980639     0.13100
C298        C  0.78723045  0.94950467  0.67868681     0.62700
F299        F  0.63965499  0.78180003  0.61097755    -0.22500
F300        F  0.68481575  0.73365388  0.65611818    -0.19800
F301        F  0.70695959  0.75116012  0.57886483    -0.19500
F302        F  0.75312442  0.98464542  0.67611327    -0.19600
F303        F  0.82583876  0.96171885  0.64848702    -0.19900
F304        F  0.80420949  0.94788887  0.72647745    -0.22600
C305        C  0.08771998  0.77133528  0.34783305    -0.05400
C306        C  0.10228641  0.75365524  0.39344061     0.00500
C307        C  0.14952931  0.73661602  0.39935661    -0.08100
C308        C  0.18097356  0.73760215  0.35893767    -0.05400
C309        C  0.16694723  0.75628003  0.31353138     0.00500
C310        C  0.11936804  0.77330523  0.30750327    -0.08000
C311        C  0.09994757  0.79431753  0.26022119     0.62400
H312        H  0.05127446  0.78421471  0.34381230     0.13100
H313        H  0.21722077  0.72456136  0.36272390     0.13100
C314        C  0.16700677  0.71943428  0.44875649     0.62700
F315        F  0.08260097  0.83942119  0.26957690    -0.22500
F316        F  0.06213704  0.76512249  0.24310100    -0.19800
F317        F  0.13420808  0.79894378  0.22355147    -0.19500
F318        F  0.13868819  0.68035243  0.46375963    -0.19600
F319        F  0.16363626  0.75626882  0.48249524    -0.19900
F320        F  0.21473815  0.70577888  0.44731385    -0.22600
C321        C  0.14986123  0.71696813  0.58986882    -0.05400
C322        C  0.10877259  0.74191254  0.60343574     0.00500
C323        C  0.10540980  0.76058000  0.65153339    -0.08100
C324        C  0.14416476  0.75446209  0.68406633    -0.05400
C325        C  0.18706432  0.73349897  0.66881895     0.00500
C326        C  0.18981515  0.71323013  0.62126321    -0.08000
C327        C  0.23340435  0.68770066  0.60143785     0.62400
H328        H  0.15123352  0.70073656  0.55360078     0.13100
H329        H  0.14243843  0.76848211  0.72119541     0.13100
C330        C  0.06129540  0.78690871  0.66823999     0.62700
F331        F  0.21881400  0.64256204  0.58485784    -0.22500
F332        F  0.26945043  0.68192083  0.63585128    -0.19800
F333        F  0.25269293  0.71367434  0.56247849    -0.19500
F334        F  0.06361719  0.79859288  0.71760209    -0.19600
F335        F  0.02002178  0.75840862  0.66056742    -0.19900
F336        F  0.05818267  0.82902172  0.64190520    -0.22600
C337        C  0.85238042  0.78864774  0.67208540    -0.05400
C338        C  0.82169265  0.74760976  0.67338440     0.00500
C339        C  0.82849167  0.71052890  0.63868428    -0.08100
C340        C  0.86802485  0.71461873  0.60649406    -0.05400
C341        C  0.89849522  0.75603960  0.60452443     0.00500
C342        C  0.88865141  0.79508974  0.63631642    -0.08000
C343        C  0.91508583  0.84361900  0.63285524     0.62400
H344        H  0.84764842  0.81592952  0.69968756     0.13100
H345        H  0.87394649  0.68538158  0.58114929     0.13100
C346        C  0.79534334  0.66633065  0.63283201     0.62700
F347        F  0.90689069  0.86360995  0.58727480    -0.22500
F348        F  0.96406323  0.83845932  0.63978949    -0.19800
F349        F  0.89937987  0.87560356  0.66786754    -0.19500
F350        F  0.78049310  0.66262848  0.58439903    -0.19600
F351        F  0.75424901  0.66731603  0.66145932    -0.19900
F352        F  0.82063120  0.62595255  0.64480476    -0.22600
C353        C  0.91460579  0.78598636  0.35468273    -0.05400
C354        C  0.90076857  0.76639291  0.39998812     0.00500
C355        C  0.85246466  0.74978227  0.40760379    -0.08100
C356        C  0.81946618  0.75270376  0.36859990    -0.05400
C357        C  0.83302351  0.77274713  0.32324206     0.00500
C358        C  0.88158142  0.78940630  0.31577853    -0.08000
C359        C  0.90131660  0.80948274  0.26775820     0.62400
H360        H  0.95201101  0.79795539  0.34933495     0.13100
H361        H  0.78287594  0.73827528  0.37286602     0.13100
C362        C  0.83569366  0.72999954  0.45687091     0.62700
F363        F  0.92517126  0.85310533  0.27642307    -0.22500
F364        F  0.86601292  0.81680611  0.23295518    -0.19800
F365        F  0.93401019  0.77791527  0.24864530    -0.19500
F366        F  0.84514849  0.76381430  0.49310631    -0.19600
F367        F  0.85976927  0.68861424  0.46774437    -0.19900
F368        F  0.78645031  0.71890704  0.45714318    -0.22600
C369        C  0.23548197  0.08749880  0.34909432    -0.05400
C370        C  0.24904998  0.10194073  0.39655407     0.00500
C371        C  0.26130086  0.15068121  0.40592308    -0.08100
C372        C  0.25859087  0.18391886  0.36738666    -0.05400
C373        C  0.24243724  0.17009116  0.32049316     0.00500
C374        C  0.23257318  0.12079823  0.31041131    -0.08000
C375        C  0.21996117  0.10328418  0.25907666     0.62400
H376        H  0.22770238  0.04974176  0.34250988     0.13100
H377        H  0.26921716  0.22112576  0.37356671     0.13100
C378        C  0.27691282  0.16719026  0.45656558     0.62700
F379        F  0.25816143  0.11348180  0.22768084    -0.22500
F380        F  0.17936244  0.12564772  0.24228407    -0.19800
F381        F  0.21047520  0.05421216  0.25781049    -0.19500
F382        F  0.31923357  0.14505938  0.46916324    -0.19600
F383        F  0.24096972  0.15505771  0.49004058    -0.19900
F384        F  0.28539655  0.21636939  0.45877727    -0.22600
C385        C  0.24299523  0.14108634  0.68203638    -0.05400
C386        C  0.26410841  0.18500648  0.66691191     0.00500
C387        C  0.29014194  0.18723541  0.62229418    -0.08100
C388        C  0.29025558  0.14610429  0.59215420    -0.05400
C389        C  0.26379132  0.10397465  0.60449849     0.00500
C390        C  0.24125505  0.10077370  0.65103109    -0.08000
C391        C  0.21622490  0.05477904  0.66817321     0.62400
H392        H  0.22621201  0.13923040  0.71791677     0.13100
H393        H  0.30975012  0.14710888  0.55792246     0.13100
C394        C  0.31724617  0.23277737  0.60657341     0.62700
F395        F  0.20277428  0.05705751  0.71701640    -0.22500
F396        F  0.24727367  0.01715016  0.66289034    -0.19800
F397        F  0.17488147  0.04624440  0.64049675    -0.19500
F398        F  0.34232020  0.22655892  0.56320210    -0.19600
F399        F  0.35026802  0.24688232  0.64240155    -0.19900
F400        F  0.28478644  0.26871005  0.59944607    -0.22600
C401        C  0.22252285  0.84176504  0.66725577    -0.05400
C402        C  0.26269612  0.81232580  0.66494383     0.00500
C403        C  0.29983109  0.82359013  0.63050050    -0.08100
C404        C  0.29544525  0.86442079  0.60067119    -0.05400
C405        C  0.25383355  0.89231940  0.60089779     0.00500
C406        C  0.21572013  0.87959240  0.63403408    -0.08000
C407        C  0.16779500  0.90480663  0.63488754     0.62400
H408        H  0.19604914  0.83465674  0.69564216     0.13100
H409        H  0.32451618  0.87343291  0.57528276     0.13100
C410        C  0.34484224  0.79449605  0.62315928     0.62700
F411        F  0.13773331  0.88810785  0.67217385    -0.22500
F412        F  0.14366659  0.89722053  0.59090884    -0.19800
F413        F  0.17578708  0.95323585  0.64226770    -0.19500
F414        F  0.34279508  0.75062077  0.64659415    -0.19600
F415        F  0.38476636  0.82069034  0.64033265    -0.19900
F416        F  0.35103641  0.78566804  0.57362023    -0.22600
C417        C  0.27816977  0.86840416  0.38888631    -0.05400
C418        C  0.23993689  0.90022728  0.39365114     0.00500
C419        C  0.20128177  0.89770917  0.35904111    -0.08100
C420        C  0.20402109  0.86525075  0.31960423    -0.05400
C421        C  0.24210842  0.83354018  0.31513311     0.00500
C422        C  0.27957534  0.83439417  0.35074603    -0.08000
C423        C  0.32065379  0.79935433  0.34902470     0.62400
H424        H  0.30712950  0.87017213  0.41573391     0.13100
H425        H  0.17583044  0.86369499  0.29201675     0.13100
C426        C  0.15719339  0.92867455  0.36320324     0.62700
F427        F  0.34962000  0.80271579  0.39049069    -0.22500
F428        F  0.34964762  0.80880779  0.30871817    -0.19800
F429        F  0.30222007  0.75275001  0.34604545    -0.19500
F430        F  0.17141254  0.97665952  0.36442431    -0.19600
F431        F  0.13193360  0.91683474  0.40550800    -0.19900
F432        F  0.12575855  0.92202503  0.32396792    -0.22600
C433        C  0.76508152  0.30612207  0.12715482    -0.05400
C434        C  0.75322739  0.31307788  0.17659997     0.00500
C435        C  0.74417548  0.36027339  0.19332529    -0.08100
C436        C  0.74617251  0.39859408  0.15928926    -0.05400
C437        C  0.75941176  0.39174099  0.11015258     0.00500
C438        C  0.76888741  0.34470466  0.09382747    -0.08000
C439        C  0.78351961  0.33560364  0.04133877     0.62400
H440        H  0.77252016  0.27017984  0.11505478     0.13100
H441        H  0.73866903  0.43452285  0.17117833     0.13100
C442        C  0.73390920  0.37067694  0.24703522     0.62700
F443        F  0.78898689  0.28727994  0.03183810    -0.22500
F444        F  0.82724743  0.35931903  0.03256140    -0.19800
F445        F  0.74865416  0.35242838  0.00983240    -0.19500
F446        F  0.77549865  0.36515364  0.27441447    -0.19600
F447        F  0.69798307  0.33977543  0.26478113    -0.19900
F448        F  0.71892084  0.41711947  0.25381941    -0.22600
C449        C  0.79550760  0.64816585  0.10369315    -0.05400
C450        C  0.76875514  0.60629919  0.11629546     0.00500
C451        C  0.74359313  0.60456101  0.16147526    -0.08100
C452        C  0.74474301  0.64560035  0.19164769    -0.05400
C453        C  0.76746046  0.68891888  0.17666555     0.00500
C454        C  0.79440664  0.69008919  0.13253808    -0.08000
C455        C  0.82127809  0.73540491  0.11569399     0.62400
H456        H  0.81619187  0.64820973  0.07012700     0.13100
H457        H  0.72684780  0.64460924  0.22698083     0.13100
C458        C  0.71753358  0.55898693  0.17865766     0.62700
F459        F  0.84710231  0.72813093  0.07297258    -0.22500
F460        F  0.85357528  0.75112771  0.15148998    -0.19800
F461        F  0.78848151  0.77062010  0.10668520    -0.19500
F462        F  0.74953653  0.52193916  0.17849259    -0.19600
F463        F  0.67904138  0.54772121  0.14780170    -0.19900
F464        F  0.69959573  0.56347172  0.22578798    -0.22600
C465        C  0.77729622  0.68450588  0.87468222    -0.05400
C466        C  0.76292996  0.66836698  0.82788426     0.00500
C467        C  0.75238057  0.61871828  0.82041661    -0.08100
C468        C  0.75492965  0.58725954  0.86078225    -0.05400
C469        C  0.76842444  0.60369038  0.90765686     0.00500
C470        C  0.78002574  0.65297302  0.91485050    -0.08000
C471        C  0.79387911  0.67213467  0.96505670     0.62400
H472        H  0.78580141  0.72233424  0.87964323     0.13100
H473        H  0.74652417  0.54928864  0.85608456     0.13100
C474        C  0.73867379  0.59885823  0.77023514     0.62700
F475        F  0.80220011  0.72139650  0.96479339    -0.22500
F476        F  0.83575251  0.65090656  0.98062951    -0.19800
F477        F  0.75676096  0.66166708  0.99771979    -0.19500
F478        F  0.77798981  0.60347641  0.73918115    -0.19600
F479        F  0.70042972  0.62348678  0.75090653    -0.19900
F480        F  0.72494278  0.55067506  0.77232128    -0.22600
C481        C  0.79486779  0.34388315  0.84946566    -0.05400
C482        C  0.74983157  0.33556170  0.82640727     0.00500
C483        C  0.71206493  0.36735625  0.83641323    -0.08100
C484        C  0.71770627  0.39961460  0.87588897    -0.05400
C485        C  0.76203370  0.40625109  0.90109117     0.00500
C486        C  0.80271754  0.38085832  0.88407066    -0.08000
C487        C  0.85448644  0.39325327  0.89985090     0.62400
H488        H  0.82438200  0.32112174  0.83962476     0.13100
H489        H  0.68751062  0.42170726  0.88537555     0.13100
C490        C  0.66713271  0.37193998  0.80488391     0.62700
F491        F  0.88785927  0.36681925  0.87441245    -0.22500
F492        F  0.86054705  0.38402357  0.94907997    -0.19800
F493        F  0.86510347  0.44124377  0.89057783    -0.19500
F494        F  0.62630715  0.36178807  0.83274695    -0.19600
F495        F  0.66671462  0.34234018  0.76419474    -0.19900
F496        F  0.66509995  0.41871833  0.78821611    -0.22600
C497        C  0.63706083  0.79104227  0.10654837    -0.05400
C498        C  0.60812425  0.74853562  0.10496119     0.00500
C499        C  0.61994536  0.70999969  0.13649943    -0.08100
C500        C  0.65709259  0.71760919  0.17120461    -0.05400
C501        C  0.68707035  0.75914890  0.17123025     0.00500
C502        C  0.67749070  0.79638974  0.13750352    -0.08000
C503        C  0.70826812  0.84221946  0.13158768     0.62400
H504        H  0.62924349  0.82022998  0.08178036     0.13100
H505        H  0.66298037  0.69087497  0.19899560     0.13100
C506        C  0.59468399  0.66086085  0.13389867     0.62700
F507        F  0.72073344  0.84786311  0.08270130    -0.22500
F508        F  0.75068140  0.84246413  0.15832992    -0.19800
F509        F  0.68170688  0.88100823  0.14594845    -0.19500
F510        F  0.54578602  0.66489485  0.14208708    -0.19600
F511        F  0.61224241  0.62957029  0.16861442    -0.19900
F512        F  0.60206142  0.64076895  0.08820623    -0.22600
C513        C  0.35009437  0.77135503  0.08295207    -0.05400
C514        C  0.39476665  0.75674745  0.10103136     0.00500
C515        C  0.40046361  0.74825409  0.15177336    -0.08100
C516        C  0.36064264  0.75412247  0.18293830    -0.05400
C517        C  0.31539163  0.76720263  0.16465576     0.00500
C518        C  0.31039362  0.77792679  0.11411239    -0.08000
C519        C  0.26487301  0.79726918  0.09145223     0.62400
H520        H  0.34631474  0.77818104  0.04404742     0.13100
H521        H  0.36380915  0.74632501  0.22173555     0.13100
C522        C  0.44792610  0.73163155  0.17246739     0.62700
F523        F  0.27703200  0.83581307  0.06140712    -0.22500
F524        F  0.23286367  0.81330293  0.12621814    -0.19800
F525        F  0.24222830  0.76176356  0.06338036    -0.19500
F526        F  0.48510648  0.76379233  0.16005590    -0.19600
F527        F  0.45713173  0.68705312  0.15321447    -0.19900
F528        F  0.44674013  0.72770688  0.22310350    -0.22600
C529        C  0.40625482  0.70684851  0.85990057    -0.05400
C530        C  0.40555569  0.74642411  0.89180393     0.00500
C531        C  0.37442188  0.78473177  0.88123866    -0.08100
C532        C  0.34338294  0.78041243  0.84044966    -0.05400
C533        C  0.34400802  0.74059609  0.80898304     0.00500
C534        C  0.37815996  0.70464279  0.81704097    -0.08000
C535        C  0.38802846  0.66461582  0.78106738     0.62400
H536        H  0.43073587  0.67810258  0.86727057     0.13100
H537        H  0.31740118  0.80781828  0.83317142     0.13100
C538        C  0.37267769  0.82948252  0.91301554     0.62700
F539        F  0.37399351  0.62095992  0.80147406    -0.22500
F540        F  0.43720517  0.66433777  0.77138701    -0.19800
F541        F  0.36447987  0.67003389  0.73678195    -0.19500
F542        F  0.36535449  0.81674533  0.96148459    -0.19600
F543        F  0.33549722  0.85883022  0.89927272    -0.19900
F544        F  0.41570362  0.85592354  0.90869618    -0.22600
C545        C  0.64422488  0.70417826  0.82834632    -0.05400
C546        C  0.68335313  0.73724874  0.83214431     0.00500
C547        C  0.68478856  0.77117122  0.87093654    -0.08100
C548        C  0.64661434  0.77049076  0.90483113    -0.05400
C549        C  0.60737817  0.73737582  0.90127478     0.00500
C550        C  0.60564430  0.70391046  0.86194882    -0.08000
C551        C  0.56195062  0.67046532  0.85323861     0.62400
H552        H  0.64336887  0.67956627  0.79760479     0.13100
H553        H  0.64755213  0.79630933  0.93466002     0.13100
C554        C  0.72490648  0.80913999  0.87843070     0.62700
F555        F  0.56519014  0.64579529  0.80929870    -0.22500
F556        F  0.52054100  0.69695726  0.85153369    -0.19800
F557        F  0.55799888  0.63697556  0.89050119    -0.19500
F558        F  0.70581830  0.85410684  0.87316610    -0.19600
F559        F  0.76296468  0.80553401  0.84595304    -0.19900
F560        F  0.74337007  0.80516216  0.92542785    -0.22600
C561        C  0.20723684  0.63404607  0.10047889    -0.05400
C562        C  0.25032858  0.60850238  0.09714623     0.00500
C563        C  0.29040144  0.62328531  0.12712564    -0.08100
C564        C  0.28400193  0.65999123  0.16181817    -0.05400
C565        C  0.24139003  0.68595986  0.16434349     0.00500
C566        C  0.20227609  0.67317179  0.13257857    -0.08000
C567        C  0.15476911  0.69936963  0.13253888     0.62400
H568        H  0.17686281  0.62325373  0.07736911     0.13100
H569        H  0.31276066  0.66909059  0.18744687     0.13100
C570        C  0.34013422  0.60185091  0.12260828     0.62700
F571        F  0.12885923  0.69079080  0.08968941    -0.22500
F572        F  0.16296558  0.74834005  0.13616816    -0.19800
F573        F  0.12640197  0.68384529  0.17145612    -0.19500
F574        F  0.35804778  0.60982530  0.07585310    -0.19600
F575        F  0.33727647  0.55320733  0.13193034    -0.19900
F576        F  0.37314177  0.62226904  0.15542062    -0.22600
C577        C  0.20491899  0.36141573  0.10220569    -0.05400
C578        C  0.23920457  0.39932923  0.10820565     0.00500
C579        C  0.26869957  0.40069690  0.15093731    -0.08100
C580        C  0.26486081  0.36243194  0.18449243    -0.05400
C581        C  0.23226928  0.32347745  0.17722666     0.00500
C582        C  0.20079839  0.32329921  0.13608286    -0.08000
C583        C  0.16306084  0.28322572  0.12788423     0.62400
H584        H  0.18160588  0.36162877  0.07027122     0.13100
H585        H  0.28749169  0.36249934  0.21693995     0.13100
C586        C  0.30203432  0.44349647  0.16265879     0.62700
F587        F  0.12906803  0.28374985  0.16497195    -0.22500
F588        F  0.18471519  0.23926416  0.12758087    -0.19800
F589        F  0.13897853  0.28821933  0.08366734    -0.19500
F590        F  0.27565511  0.48480028  0.16133690    -0.19600
F591        F  0.33935869  0.44679731  0.12900295    -0.19900
F592        F  0.32248002  0.44013069  0.20891582    -0.22600
C593        C  0.25569585  0.41211952  0.84848090    -0.05400
C594        C  0.24717206  0.39560008  0.89627107     0.00500
C595        C  0.23690451  0.34632719  0.90469305    -0.08100
C596        C  0.23506698  0.31477772  0.86429806    -0.05400
C597        C  0.24415399  0.33110532  0.81628188     0.00500
C598        C  0.25442986  0.38066562  0.80806481    -0.08000
C599        C  0.26441138  0.40034290  0.75703212     0.62400
H600        H  0.26317146  0.45014330  0.84311406     0.13100
H601        H  0.22797647  0.27677944  0.86999572     0.13100
C602        C  0.22907077  0.32740855  0.95628270     0.62700
F603        F  0.22259478  0.39645790  0.72932746    -0.22500
F604        F  0.30053970  0.37518434  0.73447287    -0.19800
F605        F  0.27916192  0.44824077  0.75824192    -0.19500
F606        F  0.18879147  0.34794666  0.97642610    -0.19600
F607        F  0.26923303  0.33895148  0.98489337    -0.19900
F608        F  0.22182656  0.27802430  0.95696871    -0.22600
C609        C  0.25671292  0.58006308  0.84310577    -0.05400
C610        C  0.25996428  0.59591135  0.89176680     0.00500
C611        C  0.26680284  0.64533841  0.90190418    -0.08100
C612        C  0.26798974  0.67784362  0.86251586    -0.05400
C613        C  0.26674805  0.66225573  0.81337157     0.00500
C614        C  0.26180855  0.61211088  0.80343036    -0.08000
C615        C  0.26143887  0.59042830  0.75219829     0.62400
H616        H  0.25138577  0.54194941  0.83609617     0.13100
H617        H  0.26975824  0.71597075  0.86996435     0.13100
C618        C  0.27263525  0.66345014  0.95418222     0.62700
F619        F  0.21414636  0.57959564  0.73835255    -0.22500
F620        F  0.28703718  0.54857792  0.75202361    -0.19800
F621        F  0.28265375  0.62046998  0.71763152    -0.19500
F622        F  0.31283760  0.64351016  0.97536348    -0.19600
F623        F  0.23193349  0.65052996  0.98116471    -0.19900
F624        F  0.27889806  0.71291543  0.95613349    -0.22600
C625        C  0.39433565  0.28114465  0.15118975    -0.05400
C626        C  0.38619093  0.25972750  0.10520477     0.00500
C627        C  0.34058067  0.23725389  0.09475379    -0.08100
C628        C  0.30494402  0.23615891  0.13141325    -0.05400
C629        C  0.31329708  0.25680446  0.17764623     0.00500
C630        C  0.35893766  0.27938730  0.18822199    -0.08000
C631        C  0.37296216  0.30132018  0.23753709     0.62400
H632        H  0.42910935  0.29860650  0.15871741     0.13100
H633        H  0.27036311  0.21812209  0.12457543     0.13100
C634        C  0.32899449  0.21564572  0.04472245     0.62700
F635        F  0.38745215  0.34884879  0.23092470    -0.22500
F636        F  0.41137759  0.27681963  0.25682875    -0.19800
F637        F  0.33587531  0.29984341  0.27149703    -0.19500
F638        F  0.35713600  0.17632797  0.03654895    -0.19600
F639        F  0.33805923  0.24959524  0.00864991    -0.19900
F640        F  0.28087139  0.20054461  0.04090577    -0.22600
C641        C  0.63020163  0.21423198  0.09668502    -0.05400
C642        C  0.59698253  0.25062766  0.10421394     0.00500
C643        C  0.60153168  0.28051129  0.14617629    -0.08100
C644        C  0.64020878  0.27355052  0.17849167    -0.05400
C645        C  0.67386944  0.23791932  0.17047633     0.00500
C646        C  0.66851065  0.20687192  0.12954755    -0.08000
C647        C  0.70231716  0.16572767  0.12094805     0.62400
H648        H  0.62567909  0.19129441  0.06478810     0.13100
H649        H  0.64414565  0.29563691  0.21084750     0.13100
C650        C  0.56475202  0.31804923  0.15826268     0.62700
F651        F  0.69373384  0.14361001  0.07610834    -0.22500
F652        F  0.69555804  0.13149974  0.15714972    -0.19800
F653        F  0.75001652  0.18229657  0.12171639    -0.19500
F654        F  0.51873064  0.29710934  0.15761134    -0.19600
F655        F  0.56761838  0.35486052  0.12433696    -0.19900
F656        F  0.57241702  0.33787120  0.20435301    -0.22600
C657        C  0.62537538  0.25572888  0.81762527    -0.05400
C658        C  0.67340620  0.25465355  0.83472853     0.00500
C659        C  0.68230624  0.25314677  0.88598726    -0.08100
C660        C  0.64308806  0.25784044  0.91821324    -0.05400
C661        C  0.59546222  0.26037470  0.90092252     0.00500
C662        C  0.58601615  0.25826169  0.85002098    -0.08000
C663        C  0.53468860  0.25933097  0.83024780     0.62400
H664        H  0.61905052  0.25545155  0.77838070     0.13100
H665        H  0.64950553  0.25763191  0.95751175     0.13100
C666        C  0.73129861  0.24428473  0.90890326     0.62700
F667        F  0.53348198  0.25794003  0.77946125    -0.22500
F668        F  0.51344849  0.30099455  0.84534681    -0.19800
F669        F  0.50789152  0.22022063  0.84772139    -0.19500
F670        F  0.74652110  0.28449462  0.93501304    -0.19600
F671        F  0.76646128  0.23361592  0.87498430    -0.19900
F672        F  0.72687183  0.20586575  0.94090703    -0.22600
C673        C  0.36196459  0.22730564  0.88841533    -0.05400
C674        C  0.38888832  0.26987566  0.89878934     0.00500
C675        C  0.38039616  0.31160688  0.87045862    -0.08100
C676        C  0.35084628  0.30683964  0.82863536    -0.05400
C677        C  0.32467948  0.26412808  0.81802230     0.00500
C678        C  0.32854345  0.22416016  0.84966318    -0.08000
C679        C  0.29711058  0.17861270  0.84357952     0.62400
H680        H  0.36697622  0.19610240  0.91126981     0.13100
H681        H  0.34653582  0.33717979  0.80457370     0.13100
C682        C  0.40012404  0.36130455  0.88462104     0.62700
F683        F  0.29967937  0.14917426  0.88434206    -0.20900
F684        F  0.31224221  0.15283698  0.80343925    -0.19800
F685        F  0.24910231  0.18994753  0.83731037    -0.19500
F686        F  0.38347357  0.39655023  0.85364164    -0.19600
F687        F  0.45011513  0.36307932  0.88263801    -0.19900
F688        F  0.38504538  0.37224207  0.93160438    -0.22600
loop_ 
_geom_bond_atom_site_label_1 
_geom_bond_atom_site_label_2 
_geom_bond_distance 
_geom_bond_site_symmetry_2 
_ccdc_geom_bond_type 
O1            V9   1.895       .  S
O1           C11   1.263       .  A
O2            V9   1.898   1_556  S
O2           C12   1.262       .  A
O3            V9   1.907       .  S
O3           C13   1.265       .  A
O4            V9   1.906   1_556  S
O4           C14   1.265       .  A
O5           V10   1.894   1_556  S
O5           C14   1.261       .  A
O6           V10   1.894       .  S
O6           C13   1.262       .  A
O7           V10   1.890   1_556  S
O7           C12   1.265       .  A
O8           V10   1.894       .  S
O8           C11   1.264       .  A
V9           V10   2.087       .  T
C11         C642   1.476       .  S
C12         C674   1.487       .  S
C13         C626   1.477       .  S
C14         C661   1.469       .  S
O15          V23   1.905       .  S
O15          C25   1.264       .  A
O16          V23   1.905   1_556  S
O16          C26   1.265       .  A
O17          V23   1.900   1_556  S
O17          C27   1.263       .  A
O18          V23   1.903       .  S
O18          C28   1.264       .  A
O19          V24   1.907   1_554  S
O19          C28   1.266       .  A
O20          V24   1.904       .  S
O20          C27   1.264       .  A
O21          V24   1.899       .  S
O21          C26   1.263       .  A
O22          V24   1.900   1_554  S
O22          C25   1.266       .  A
V23          V24   2.086   1_554  T
C25         C562   1.498       .  S
C26         C594   1.474       .  S
C27         C610   1.473       .  S
C28         C578   1.488       .  S
O29          V37   1.891   1_556  S
O29          C39   1.261       .  A
O30          V37   1.892       .  S
O30          C40   1.265       .  A
O31          V37   1.898   1_556  S
O31          C41   1.265       .  A
O32          V37   1.900       .  S
O32          C42   1.264       .  A
O33          V38   1.903       .  S
O33          C42   1.264       .  A
O34          V38   1.898   1_556  S
O34          C41   1.263       .  A
O35          V38   1.903       .  S
O35          C40   1.264       .  A
O36          V38   1.902   1_556  S
O36          C39   1.266       .  A
V37          V38   2.085       .  T
C39         C530   1.482       .  S
C40         C498   1.491       .  S
C41         C549   1.481       .  S
C42         C514   1.474       .  S
O43          V51   1.902   1_556  S
O43          C53   1.263       .  A
O44          V51   1.905       .  S
O44          C54   1.265       .  A
O45          V51   1.919       .  S
O45          C55   1.269       .  A
O46          V51   1.912   1_556  S
O46          C56   1.266       .  A
O47          V52   1.903   1_556  S
O47          C56   1.264       .  A
O48          V52   1.911       .  S
O48          C55   1.265       .  A
O49          V52   1.907       .  S
O49          C54   1.266       .  A
O50          V52   1.905   1_556  S
O50          C53   1.268       .  A
V51          V52   2.085       .  T
C53         C485   1.498       .  S
C54         C450   1.485       .  S
C55         C437   1.494       .  S
C56         C469   1.482       .  S
O57          V65   1.908   1_545  S
O57          C67   1.265       .  A
O58          V65   1.902       .  S
O58          C68   1.266       .  A
O59          V65   1.904   1_545  S
O59          C69   1.264       .  A
O60          V65   1.905       .  S
O60          C70   1.268       .  A
O61          V66   1.905   1_565  S
O61          C70   1.264       .  A
O62          V66   1.903       .  S
O62          C69   1.264       .  A
O63          V66   1.903   1_565  S
O63          C68   1.264       .  A
O64          V66   1.905       .  S
O64          C67   1.266       .  A
V65          V66   2.084   1_565  T
C67         C389   1.486       .  S
C68         C418   1.491       .  S
C69         C370   1.476       .  S
C70         C405   1.498       .  S
O71          V79   1.898   1_655  S
O71          C81   1.263       .  A
O72          V79   1.902       .  S
O72          C82   1.265       .  A
O73          V79   1.901       .  S
O73          C83   1.264       .  A
O74          V79   1.901   1_655  S
O74          C84   1.263       .  A
O75          V80   1.899   1_655  S
O75          C84   1.267       .  A
O76          V80   1.900       .  S
O76          C83   1.264       .  A
O77          V80   1.897       .  S
O77          C82   1.263       .  A
O78          V80   1.892   1_655  S
O78          C81   1.262       .  A
V79          V80   2.087       .  T
C81         C354   1.466       .  S
C82         C322   1.475       .  S
C83         C306   1.473       .  S
C84         C341   1.493       .  S
O85          V93   1.896   1_565  S
O85          C95   1.263       .  A
O86          V93   1.903       .  S
O86          C96   1.264       .  A
O87          V93   1.908   1_565  S
O87          C97   1.266       .  A
O88          V93   1.909       .  S
O88          C98   1.269       .  A
O89          V94   1.905   1_545  S
O89          C98   1.264       .  A
O90          V94   1.902       .  S
O90          C97   1.264       .  A
O91          V94   1.915   1_545  S
O91          C96   1.268       .  A
O92          V94   1.911       .  S
O92          C95   1.266       .  A
V93          V94   2.085   1_545  T
C95         C277   1.479       .  S
C96         C245   1.491       .  S
C97         C290   1.482       .  S
C98         C261   1.500       .  S
O99         V107   1.900   1_455  S
O99         C109   1.267       .  A
O100        V107   1.899       .  S
O100        C110   1.263       .  A
O101        V107   1.897       .  S
O101        C111   1.262       .  A
O102        V107   1.891   1_455  S
O102        C112   1.261       .  A
O103        V108   1.907   1_455  S
O103        C112   1.265       .  A
O104        V108   1.905       .  S
O104        C111   1.266       .  A
O105        V108   1.893       .  S
O105        C110   1.261       .  A
O106        V108   1.895   1_455  S
O106        C109   1.261       .  A
V107        V108   2.086       .  T
C109        C181   1.490       .  S
C110        C210   1.464       .  S
C111        C226   1.479       .  S
C112        C197   1.472       .  S
C113        C629   1.479       .  S
C113        C114   1.414       .  A
C113        C118   1.401       .  A
C114        C581   1.490       .  S
C114        C115   1.404       .  A
C115        C116   1.407       .  A
C115        H120   1.084       .  S
C116        C194   1.485       .  S
C116        C117   1.419       .  A
C117        C373   1.488       .  S
C117        C118   1.400       .  A
C118        H119   1.084       .  S
C121        C434   1.499       .  S
C121        C122   1.417       .  A
C121        C126   1.400       .  A
C122        C645   1.479       .  S
C122        C123   1.406       .  A
C123        C124   1.403       .  A
C123        H128   1.084       .  S
C124        C258   1.501       .  S
C124        C125   1.421       .  A
C125        C213   1.483       .  S
C125        C126   1.407       .  A
C126        H127   1.083       .  S
C129        C658   1.485       .  S
C129        C130   1.422       .  A
C129        C134   1.408       .  A
C130        C482   1.495       .  S
C130        C131   1.404       .  A
C131        C132   1.399       .  A
C131        H136   1.084       .  S
C132        C229   1.478       .  S
C132        C133   1.412       .  A
C133        C242   1.489       .  S
C133        C134   1.401       .  A
C134        H135   1.084       .  S
C137        C501   1.485       .  S
C137        C138   1.420       .  A
C137        C142   1.408       .  A
C138        C453   1.490       .  S
C138        C139   1.400       .  A
C139        C140   1.402       .  A
C139        H144   1.085       .  S
C140        C357   1.478       .  S
C140        C141   1.414       .  A
C141        C274   1.489       .  S
C141        C142   1.403       .  A
C142        H143   1.084       .  S
C145        C546   1.477       .  S
C145        C146   1.415       .  A
C145        C150   1.401       .  A
C146        C466   1.494       .  S
C146        C147   1.405       .  A
C147        C148   1.410       .  A
C147        H152   1.083       .  S
C148        C338   1.487       .  S
C148        C149   1.417       .  A
C149        C293   1.486       .  S
C149        C150   1.398       .  A
C150        H151   1.085       .  S
C153        C517   1.484       .  S
C153        C154   1.422       .  A
C153        C158   1.403       .  A
C154        C565   1.496       .  S
C154        C155   1.406       .  A
C155        C156   1.403       .  A
C155        H160   1.082       .  S
C156        C309   1.481       .  S
C156        C157   1.412       .  A
C157        C421   1.489       .  S
C157        C158   1.400       .  A
C158        H159   1.084       .  S
C161        C533   1.483       .  S
C161        C162   1.421       .  A
C161        C166   1.405       .  A
C162        C613   1.496       .  S
C162        C163   1.402       .  A
C163        C164   1.400       .  A
C163        H168   1.084       .  S
C164        C325   1.477       .  S
C164        C165   1.416       .  A
C165        C402   1.494       .  S
C165        C166   1.402       .  A
C166        H167   1.084       .  S
C169        C597   1.491       .  S
C169        C170   1.415       .  A
C169        C174   1.402       .  A
C170        C677   1.484       .  S
C170        C171   1.401       .  A
C171        C172   1.399       .  A
C171        H176   1.083       .  S
C172        C386   1.487       .  S
C172        C173   1.419       .  A
C173        C178   1.486       .  S
C173        C174   1.408       .  A
C174        H175   1.084       .  S
C177        C178   1.402       .  A
C177        C182   1.406       .  A
C177        H184   1.078       .  S
C178        C179   1.418       .  A
C179        C180   1.402       .  A
C179        C186   1.518       .  S
C180        C181   1.406       .  A
C180        H185   1.084       .  S
C181        C182   1.424       .  A
C182        C183   1.521       .  S
C183        F187   1.384       .  S
C183        F188   1.383       .  S
C183        F189   1.378       .  S
C186        F190   1.384       .  S
C186        F191   1.380       .  S
C186        F192   1.383       .  S
C193        C194   1.403       .  A
C193        C198   1.404       .  A
C193        H200   1.082       .  S
C194        C195   1.422       .  A
C195        C196   1.407       .  A
C195        C202   1.518       .  S
C196        C197   1.400       .  A
C196        H201   1.085       .  S
C197        C198   1.414       .  A
C198        C199   1.520       .  S
C199        F203   1.384       .  S
C199        F204   1.383       .  S
C199        F205   1.382       .  S
C202        F206   1.379       .  S
C202        F207   1.384       .  S
C202        F208   1.383       .  S
C209        C210   1.398       .  A
C209        C214   1.403       .  A
C209        H216   1.085       .  S
C210        C211   1.409       .  A
C211        C212   1.401       .  A
C211        C218   1.515       .  S
C212        C213   1.406       .  A
C212        H217   1.082       .  S
C213        C214   1.423       .  A
C214        C215   1.521       .  S
C215        F219   1.385       .  S
C215        F220   1.383       .  S
C215        F221   1.380       .  S
C218        F222   1.380       .  S
C218        F223   1.383       .  S
C218        F224   1.385       .  S
C225        C226   1.405       .  A
C225        C230   1.407       .  A
C225        H232   1.080       .  S
C226        C227   1.416       .  A
C227        C228   1.403       .  A
C227        C234   1.514       .  S
C228        C229   1.398       .  A
C228        H233   1.081       .  S
C229        C230   1.414       .  A
C230        C231   1.519       .  S
C231        F235   1.384       .  S
C231        F236   1.382       .  S
C231        F237   1.380       .  S
C234        F238   1.384       .  S
C234        F239   1.382       .  S
C234        F240   1.385       .  S
C241        C242   1.400       .  A
C241        C246   1.406       .  A
C241        H248   1.081       .  S
C242        C243   1.420       .  A
C243        C244   1.410       .  A
C243        C250   1.518       .  S
C244        C245   1.406       .  A
C244        H249   1.084       .  S
C245        C246   1.417       .  A
C246        C247   1.512       .  S
C247        F251   1.385       .  S
C247        F252   1.382       .  S
C247        F253   1.382       .  S
C250        F254   1.383       .  S
C250        F255   1.382       .  S
C250        F256   1.383       .  S
C257        C258   1.405       .  A
C257        C262   1.413       .  A
C257        H264   1.083       .  S
C258        C259   1.417       .  A
C259        C260   1.406       .  A
C259        C266   1.515       .  S
C260        C261   1.407       .  A
C260        H265   1.084       .  S
C261        C262   1.426       .  A
C262        C263   1.519       .  S
C263        F267   1.385       .  S
C263        F268   1.377       .  S
C263        F269   1.383       .  S
C266        F270   1.384       .  S
C266        F271   1.381       .  S
C266        F272   1.382       .  S
C273        C274   1.407       .  A
C273        C278   1.410       .  A
C273        H280   1.083       .  S
C274        C275   1.420       .  A
C275        C276   1.404       .  A
C275        C282   1.516       .  S
C276        C277   1.400       .  A
C276        H281   1.086       .  S
C277        C278   1.414       .  A
C278        C279   1.515       .  S
C279        F283   1.385       .  S
C279        F284   1.382       .  S
C279        F285   1.383       .  S
C282        F286   1.384       .  S
C282        F287   1.376       .  S
C282        F288   1.383       .  S
C289        C290   1.403       .  A
C289        C294   1.406       .  A
C289        H296   1.083       .  S
C290        C291   1.415       .  A
C291        C292   1.408       .  A
C291        C298   1.516       .  S
C292        C293   1.405       .  A
C292        H297   1.083       .  S
C293        C294   1.418       .  A
C294        C295   1.518       .  S
C295        F299   1.384       .  S
C295        F300   1.380       .  S
C295        F301   1.383       .  S
C298        F302   1.383       .  S
C298        F303   1.382       .  S
C298        F304   1.385       .  S
C305        C306   1.401       .  A
C305        C310   1.405       .  A
C305        H312   1.085       .  S
C306        C307   1.412       .  A
C307        C308   1.404       .  A
C307        C314   1.513       .  S
C308        C309   1.402       .  A
C308        H313   1.081       .  S
C309        C310   1.421       .  A
C310        C311   1.520       .  S
C311        F315   1.383       .  S
C311        F316   1.383       .  S
C311        F317   1.381       .  S
C314        F318   1.383       .  S
C314        F319   1.383       .  S
C314        F320   1.384       .  S
C321        C322   1.400       .  A
C321        C326   1.402       .  A
C321        H328   1.088       .  S
C322        C323   1.414       .  A
C323        C324   1.403       .  A
C323        C330   1.513       .  S
C324        C325   1.401       .  A
C324        H329   1.086       .  S
C325        C326   1.416       .  A
C326        C327   1.518       .  S
C327        F331   1.384       .  S
C327        F332   1.380       .  S
C327        F333   1.383       .  S
C330        F334   1.385       .  S
C330        F335   1.383       .  S
C330        F336   1.381       .  S
C337        C338   1.402       .  A
C337        C342   1.406       .  A
C337        H344   1.080       .  S
C338        C339   1.417       .  A
C339        C340   1.404       .  A
C339        C346   1.519       .  S
C340        C341   1.407       .  A
C340        H345   1.084       .  S
C341        C342   1.424       .  A
C342        C343   1.519       .  S
C343        F347   1.383       .  S
C343        F348   1.377       .  S
C343        F349   1.385       .  S
C346        F350   1.384       .  S
C346        F351   1.379       .  S
C346        F352   1.383       .  S
C353        C354   1.399       .  A
C353        C358   1.403       .  A
C353        H360   1.085       .  S
C354        C355   1.413       .  A
C355        C356   1.403       .  A
C355        C362   1.519       .  S
C356        C357   1.403       .  A
C356        H361   1.082       .  S
C357        C358   1.420       .  A
C358        C359   1.519       .  S
C359        F363   1.384       .  S
C359        F364   1.379       .  S
C359        F365   1.383       .  S
C362        F366   1.383       .  S
C362        F367   1.382       .  S
C362        F368   1.385       .  S
C369        C370   1.401       .  A
C369        C374   1.409       .  A
C369        H376   1.082       .  S
C370        C371   1.412       .  A
C371        C372   1.404       .  A
C371        C378   1.512       .  S
C372        C373   1.402       .  A
C372        H377   1.081       .  S
C373        C374   1.418       .  A
C374        C375   1.517       .  S
C375        F379   1.382       .  S
C375        F380   1.378       .  S
C375        F381   1.385       .  S
C378        F382   1.382       .  S
C378        F383   1.383       .  S
C378        F384   1.384       .  S
C385        C386   1.401       .  A
C385        C390   1.405       .  A
C385        H392   1.083       .  S
C386        C387   1.414       .  A
C387        C388   1.410       .  A
C387        C394   1.515       .  S
C388        C389   1.404       .  A
C388        H393   1.078       .  S
C389        C390   1.415       .  A
C390        C391   1.511       .  S
C391        F395   1.385       .  S
C391        F396   1.384       .  S
C391        F397   1.381       .  S
C394        F398   1.385       .  S
C394        F399   1.383       .  S
C394        F400   1.379       .  S
C401        C402   1.403       .  A
C401        C406   1.407       .  A
C401        H408   1.079       .  S
C402        C403   1.419       .  A
C403        C404   1.407       .  A
C403        C410   1.520       .  S
C404        C405   1.408       .  A
C404        H409   1.084       .  S
C405        C406   1.424       .  A
C406        C407   1.519       .  S
C407        F411   1.385       .  S
C407        F412   1.383       .  S
C407        F413   1.375       .  S
C410        F414   1.380       .  S
C410        F415   1.383       .  S
C410        F416   1.384       .  S
C417        C418   1.407       .  A
C417        C422   1.408       .  A
C417        H424   1.083       .  S
C418        C419   1.423       .  A
C419        C420   1.408       .  A
C419        C426   1.520       .  S
C420        C421   1.401       .  A
C420        H425   1.081       .  S
C421        C422   1.417       .  A
C422        C423   1.522       .  S
C423        F427   1.385       .  S
C423        F428   1.381       .  S
C423        F429   1.382       .  S
C426        F430   1.382       .  S
C426        F431   1.383       .  S
C426        F432   1.384       .  S
C433        C434   1.402       .  A
C433        C438   1.410       .  A
C433        H440   1.081       .  S
C434        C435   1.422       .  A
C435        C436   1.415       .  A
C435        C442   1.521       .  S
C436        C437   1.403       .  A
C436        H441   1.079       .  S
C437        C438   1.417       .  A
C438        C439   1.511       .  S
C439        F443   1.384       .  S
C439        F444   1.379       .  S
C439        F445   1.382       .  S
C442        F446   1.381       .  S
C442        F447   1.381       .  S
C442        F448   1.384       .  S
C449        C450   1.404       .  A
C449        C454   1.409       .  A
C449        H456   1.079       .  S
C450        C451   1.415       .  A
C451        C452   1.408       .  A
C451        C458   1.514       .  S
C452        C453   1.404       .  A
C452        H457   1.083       .  S
C453        C454   1.415       .  A
C454        C455   1.516       .  S
C455        F459   1.385       .  S
C455        F460   1.382       .  S
C455        F461   1.379       .  S
C458        F462   1.381       .  S
C458        F463   1.382       .  S
C458        F464   1.384       .  S
C465        C466   1.404       .  A
C465        C470   1.408       .  A
C465        H472   1.081       .  S
C466        C467   1.419       .  A
C467        C468   1.410       .  A
C467        C474   1.517       .  S
C468        C469   1.402       .  A
C468        H473   1.083       .  S
C469        C470   1.414       .  A
C470        C471   1.512       .  S
C471        F475   1.385       .  S
C471        F476   1.382       .  S
C471        F477   1.383       .  S
C474        F478   1.381       .  S
C474        F479   1.382       .  S
C474        F480   1.385       .  S
C481        C482   1.405       .  A
C481        C486   1.408       .  A
C481        H488   1.083       .  S
C482        C483   1.417       .  A
C483        C484   1.407       .  A
C483        C490   1.517       .  S
C484        C485   1.409       .  A
C484        H489   1.084       .  S
C485        C486   1.425       .  A
C486        C487   1.521       .  S
C487        F491   1.385       .  S
C487        F492   1.377       .  S
C487        F493   1.384       .  S
C490        F494   1.382       .  S
C490        F495   1.381       .  S
C490        F496   1.384       .  S
C497        C498   1.408       .  A
C497        C502   1.402       .  A
C497        H504   1.084       .  S
C498        C499   1.422       .  A
C499        C500   1.405       .  A
C499        C506   1.518       .  S
C500        C501   1.401       .  A
C500        H505   1.079       .  S
C501        C502   1.418       .  A
C502        C503   1.520       .  S
C503        F507   1.384       .  S
C503        F508   1.378       .  S
C503        F509   1.383       .  S
C506        F510   1.377       .  S
C506        F511   1.385       .  S
C506        F512   1.383       .  S
C513        C514   1.400       .  A
C513        C518   1.405       .  A
C513        H520   1.083       .  S
C514        C515   1.412       .  A
C515        C516   1.404       .  A
C515        C522   1.513       .  S
C516        C517   1.404       .  A
C516        H521   1.084       .  S
C517        C518   1.417       .  A
C518        C519   1.515       .  S
C519        F523   1.384       .  S
C519        F524   1.381       .  S
C519        F525   1.383       .  S
C522        F526   1.383       .  S
C522        F527   1.380       .  S
C522        F528   1.385       .  S
C529        C530   1.404       .  A
C529        C534   1.401       .  A
C529        H536   1.084       .  S
C530        C531   1.422       .  A
C531        C532   1.405       .  A
C531        C538   1.520       .  S
C532        C533   1.402       .  A
C532        H537   1.083       .  S
C533        C534   1.415       .  A
C534        C535   1.516       .  S
C535        F539   1.382       .  S
C535        F540   1.384       .  S
C535        F541   1.381       .  S
C538        F542   1.382       .  S
C538        F543   1.385       .  S
C538        F544   1.383       .  S
C545        C546   1.401       .  A
C545        C550   1.406       .  A
C545        H552   1.082       .  S
C546        C547   1.417       .  A
C547        C548   1.403       .  A
C547        C554   1.520       .  S
C548        C549   1.403       .  A
C548        H553   1.085       .  S
C549        C550   1.420       .  A
C550        C551   1.519       .  S
C551        F555   1.385       .  S
C551        F556   1.382       .  S
C551        F557   1.382       .  S
C554        F558   1.383       .  S
C554        F559   1.381       .  S
C554        F560   1.383       .  S
C561        C562   1.410       .  A
C561        C566   1.408       .  A
C561        H568   1.083       .  S
C562        C563   1.424       .  A
C563        C564   1.408       .  A
C563        C570   1.521       .  S
C564        C565   1.403       .  A
C564        H569   1.080       .  S
C565        C566   1.419       .  A
C566        C567   1.522       .  S
C567        F571   1.385       .  S
C567        F572   1.380       .  S
C567        F573   1.381       .  S
C570        F574   1.383       .  S
C570        F575   1.379       .  S
C570        F576   1.384       .  S
C577        C578   1.405       .  A
C577        C582   1.410       .  A
C577        H584   1.082       .  S
C578        C579   1.420       .  A
C579        C580   1.407       .  A
C579        C586   1.516       .  S
C580        C581   1.401       .  A
C580        H585   1.082       .  S
C581        C582   1.417       .  A
C582        C583   1.519       .  S
C583        F587   1.381       .  S
C583        F588   1.381       .  S
C583        F589   1.385       .  S
C586        F590   1.383       .  S
C586        F591   1.382       .  S
C586        F592   1.385       .  S
C593        C594   1.400       .  A
C593        C598   1.407       .  A
C593        H600   1.083       .  S
C594        C595   1.412       .  A
C595        C596   1.408       .  A
C595        C602   1.515       .  S
C596        C597   1.406       .  A
C596        H601   1.082       .  S
C597        C598   1.419       .  A
C598        C599   1.518       .  S
C599        F603   1.380       .  S
C599        F604   1.383       .  S
C599        F605   1.383       .  S
C602        F606   1.382       .  S
C602        F607   1.384       .  S
C602        F608   1.385       .  S
C609        C610   1.399       .  A
C609        C614   1.407       .  A
C609        H616   1.084       .  S
C610        C611   1.411       .  A
C611        C612   1.405       .  A
C611        C618   1.518       .  S
C612        C613   1.408       .  A
C612        H617   1.081       .  S
C613        C614   1.425       .  A
C614        C615   1.521       .  S
C615        F619   1.382       .  S
C615        F620   1.384       .  S
C615        F621   1.380       .  S
C618        F622   1.383       .  S
C618        F623   1.382       .  S
C618        F624   1.385       .  S
C625        C626   1.402       .  A
C625        C630   1.406       .  A
C625        H632   1.081       .  S
C626        C627   1.417       .  A
C627        C628   1.403       .  A
C627        C634   1.519       .  S
C628        C629   1.400       .  A
C628        H633   1.080       .  S
C629        C630   1.419       .  A
C630        C631   1.520       .  S
C631        F635   1.383       .  S
C631        F636   1.383       .  S
C631        F637   1.381       .  S
C634        F638   1.382       .  S
C634        F639   1.383       .  S
C634        F640   1.384       .  S
C641        C642   1.405       .  A
C641        C646   1.405       .  A
C641        H648   1.083       .  S
C642        C643   1.417       .  A
C643        C644   1.402       .  A
C643        C650   1.518       .  S
C644        C645   1.400       .  A
C644        H649   1.078       .  S
C645        C646   1.416       .  A
C646        C647   1.520       .  S
C647        F651   1.385       .  S
C647        F652   1.382       .  S
C647        F653   1.382       .  S
C650        F654   1.381       .  S
C650        F655   1.382       .  S
C650        F656   1.385       .  S
C657        C658   1.406       .  A
C657        C662   1.405       .  A
C657        H664   1.083       .  S
C658        C659   1.419       .  A
C659        C660   1.405       .  A
C659        C666   1.517       .  S
C660        C661   1.400       .  A
C660        H665   1.085       .  S
C661        C662   1.412       .  A
C662        C663   1.517       .  S
C663        F667   1.385       .  S
C663        F668   1.381       .  S
C663        F669   1.383       .  S
C666        F670   1.380       .  S
C666        F671   1.381       .  S
C666        F672   1.384       .  S
C673        C674   1.408       .  A
C673        C678   1.402       .  A
C673        H680   1.083       .  S
C674        C675   1.422       .  A
C675        C676   1.404       .  A
C675        C682   1.521       .  S
C676        C677   1.402       .  A
C676        H681   1.080       .  S
C677        C678   1.416       .  A
C678        C679   1.523       .  S
C679        F683   1.385       .  S
C679        F684   1.381       .  S
C679        F685   1.383       .  S
C682        F686   1.385       .  S
C682        F687   1.381       .  S
C682        F688   1.384       .  S
