geometry optimzed in LAMMPS
_audit_creation_date              2020-12-01 
_audit_creation_method            'lammps2cif' 
_symmetry_space_group_name_H-M    'P1' 
_symmetry_Int_Tables_number       1 
_symmetry_cell_setting            triclinic 
loop_ 
_symmetry_equiv_pos_as_xyz 
  x,y,z 
_cell_length_a                    59.39289408 
_cell_length_b                    59.09021575369781 
_cell_length_c                    45.93634574388828 
_cell_angle_alpha                 90.23516627666764 
_cell_angle_beta                  89.91522439426191 
_cell_angle_gamma                 90.19786241801259 
loop_ 
_atom_site_label 
_atom_site_type_symbol 
_atom_site_fract_x 
_atom_site_fract_y 
_atom_site_fract_z 
_atom_site_charge 
O1          O  0.02419255  0.84139997  0.02254029    -0.73700
O2          O  0.97723035  0.79630558  0.02147207    -0.73700
O3          O  0.02297616  0.79552517  0.02500594    -0.73800
O4          O  0.97854248  0.84185775  0.01983226    -0.73900
O5          O  0.97976206  0.84116565  0.46750887    -0.73800
O6          O  0.02514516  0.79469236  0.47189296    -0.73800
O7          O  0.97928626  0.79550530  0.46980152    -0.73700
O8          O  0.02545668  0.84076044  0.46865869    -0.73800
Ni9        Ni  0.00072602  0.81878368  0.02391755     1.25400
Ni10       Ni  0.00252274  0.81791925  0.46771626     1.25400
C11         C  0.03205957  0.84984450  0.49253275     0.88500
C12         C  0.97005719  0.78883785  0.99692011     0.88400
C13         C  0.03217470  0.78822577  0.49698182     0.88400
C14         C  0.97224300  0.84896431  0.99489086     0.88600
O15         O  0.80291917  0.02681288  0.02028997    -0.73700
O16         O  0.84620712  0.97860386  0.02065101    -0.73700
O17         O  0.84824256  0.02456560  0.01982257    -0.73800
O18         O  0.80064555  0.98068309  0.02156123    -0.73900
O19         O  0.79685012  0.97759431  0.47497405    -0.73800
O20         O  0.84520673  0.02111907  0.47232111    -0.73800
O21         O  0.84243657  0.97520299  0.47390851    -0.73700
O22         O  0.79972351  0.02339089  0.47287726    -0.73800
Ni23       Ni  0.82450123  0.00265724  0.02231148     1.25400
Ni24       Ni  0.82104119  0.99924857  0.47181376     1.25400
C25         C  0.79281235  0.03226369  0.49674623     0.88500
C26         C  0.85004468  0.96797800  0.49816821     0.88400
C27         C  0.85292130  0.02940558  0.49617178     0.88400
C28         C  0.78948437  0.97087766  0.49974130     0.88600
O29         O  0.97641028  0.16762226  0.01923620    -0.73700
O30         O  0.02193691  0.21415769  0.01792607    -0.73700
O31         O  0.97615151  0.21355301  0.02340746    -0.73800
O32         O  0.02178396  0.16840044  0.01434907    -0.73900
O33         O  0.01712116  0.16766205  0.46576817    -0.73800
O34         O  0.97168679  0.21397269  0.47302203    -0.73800
O35         O  0.01758928  0.21343519  0.46851040    -0.73700
O36         O  0.97134832  0.16788925  0.46937481    -0.73800
Ni37       Ni  0.99914516  0.19090705  0.02043872     1.25400
Ni38       Ni  0.99428500  0.19084980  0.46743845     1.25400
C39         C  0.96524485  0.15891415  0.49345798     0.88500
C40         C  0.02643155  0.22009816  0.49246841     0.88400
C41         C  0.96504420  0.22006368  0.49851198     0.88400
C42         C  0.02617430  0.15976249  0.48897539     0.88600
O43         O  0.19683011  0.98657553  0.01233814    -0.73700
O44         O  0.14975459  0.03045640  0.00704082    -0.73700
O45         O  0.15170989  0.98452295  0.00903218    -0.73800
O46         O  0.19527604  0.03237643  0.01061815    -0.73900
O47         O  0.19965425  0.03167597  0.46640130    -0.73800
O48         O  0.15444785  0.98469976  0.46205626    -0.73800
O49         O  0.15396636  0.03085198  0.46256321    -0.73700
O50         O  0.19992749  0.98546166  0.46543040    -0.73800
Ni51       Ni  0.17329340  0.00858220  0.01142238     1.25400
Ni52       Ni  0.17708975  0.00823277  0.46236240     1.25400
C53         C  0.20546447  0.97824570  0.98914109     0.88500
C54         C  0.14484785  0.03774631  0.48626037     0.88400
C55         C  0.14599079  0.97556827  0.98473623     0.88400
C56         C  0.20570750  0.03944446  0.49138163     0.88600
C57         C  0.17954897  0.64436192  0.47700390     0.87200
C58         C  0.15855839  0.65949156  0.47918118    -0.53000
C59         C  0.15803706  0.67345843  0.50280513     0.10100
C60         C  0.18075131  0.67190340  0.02539319     0.21100
C61         C  0.19933511  0.66097251  0.47817894    -0.53800
C62         C  0.19929836  0.67537900  0.50150632     0.10200
C63         C  0.17934986  0.63217565  0.50648996    -0.53300
C64         C  0.18227868  0.64630255  0.03316943     0.10800
H65         H  0.14454154  0.65892330  0.46411731     0.15300
H66         H  0.18068857  0.68380043  0.04388931     0.01100
H67         H  0.21195568  0.66187749  0.46106717     0.15600
H68         H  0.17878703  0.61390673  0.50831632     0.15400
C69         C  0.34166589  0.82579141  0.03202734     0.87200
C70         C  0.32432067  0.84491080  0.03311318    -0.53000
C71         C  0.30957025  0.84500139  0.01048012     0.10100
C72         C  0.31569418  0.82414523  0.48365896     0.21100
C73         C  0.32814189  0.80383055  0.02755607    -0.53800
C74         C  0.31389568  0.80400709  0.00425188     0.10200
C75         C  0.35332476  0.82994377  0.00238723    -0.53300
C76         C  0.34111064  0.82604238  0.47564396     0.10800
H77         H  0.32427493  0.85807213  0.04960497     0.15300
H78         H  0.30406386  0.82323108  0.46487450     0.01100
H79         H  0.32904994  0.78968143  0.04251612     0.15600
H80         H  0.37129391  0.83255784  0.99982596     0.15400
N81         N  0.49287582  0.83102303  0.21060671    -0.35900
N82         N  0.45619249  0.82956192  0.25344462    -0.56500
N83         N  0.48886782  0.82910438  0.29918906    -0.35900
N84         N  0.52566331  0.82898392  0.25648023    -0.56500
C85         C  0.47501079  0.82590032  0.19355286     0.27700
C86         C  0.51172275  0.82583928  0.19531660     0.27700
C87         C  0.46999357  0.82358499  0.31424500     0.27700
C88         C  0.50669356  0.82384534  0.31607241     0.27700
C89         C  0.44441488  0.83430947  0.22913806     0.36300
C90         C  0.44223500  0.83334629  0.27622908     0.36300
C91         C  0.53971239  0.83345501  0.23398558     0.36300
C92         C  0.53760393  0.83262368  0.28106444     0.36300
C93         C  0.48259266  0.81748044  0.16705493    -0.21200
C94         C  0.50574425  0.81713540  0.16833524    -0.21200
C95         C  0.47596220  0.81451821  0.34091733    -0.21200
C96         C  0.49910024  0.81494838  0.34222834    -0.21200
C97         C  0.42281501  0.84114781  0.23645507    -0.22200
C98         C  0.42147099  0.84064928  0.26634645    -0.22200
C99         C  0.56073235  0.83973599  0.24434685    -0.22200
C100        C  0.55946645  0.83897691  0.27417135    -0.22200
C101        C  0.45215147  0.83007004  0.20054639    -0.17600
C102        C  0.53409071  0.83046797  0.20429164    -0.17600
C103        C  0.52942183  0.82903818  0.30959496    -0.17600
C104        C  0.44763179  0.82849075  0.30553674    -0.17600
H105        H  0.47250093  0.81231425  0.14857075     0.15300
H106        H  0.51693112  0.81178256  0.15102386     0.15300
H107        H  0.46481096  0.80879378  0.35804514     0.15300
H108        H  0.50911998  0.80965463  0.36061329     0.15300
H109        H  0.40929700  0.84553183  0.22176697     0.13600
H110        H  0.40676973  0.84474288  0.27925255     0.13600
H111        H  0.57551129  0.84419659  0.23179056     0.13600
H112        H  0.57310682  0.84265723  0.28907519     0.13600
H113        H  0.49221550  0.84012385  0.23001535     0.26900
H114        H  0.48963669  0.83876578  0.28034704     0.26900
C115        C  0.63372904  0.83572791  0.48296337     0.87200
C116        C  0.65018669  0.85543929  0.48608778    -0.53000
C117        C  0.66566449  0.85303813  0.50761303     0.10100
C118        C  0.66429606  0.83520513  0.02312014     0.21100
C119        C  0.64888067  0.81454680  0.48116002    -0.53800
C120        C  0.66316809  0.81155794  0.50430940     0.10200
C121        C  0.62239086  0.83312229  0.51266675    -0.53300
C122        C  0.63942270  0.83552066  0.03361224     0.10800
H123        H  0.65055916  0.86954639  0.47098758     0.15300
H124        H  0.67650851  0.83364428  0.04117140     0.01100
H125        H  0.64855067  0.80327159  0.46259421     0.15600
H126        H  0.60446846  0.83106563  0.51549386     0.15400
C127        C  0.80950667  0.66682104  0.02996609     0.87200
C128        C  0.82963446  0.68268355  0.02608775    -0.53000
C129        C  0.82916145  0.69494577  0.00104384     0.10100
C130        C  0.80938007  0.68935742  0.48479111     0.21100
C131        C  0.78866802  0.68189000  0.02603580    -0.53800
C132        C  0.78764282  0.69436442  0.00058958     0.10200
C133        C  0.81061205  0.65223738  0.00213739    -0.53300
C134        C  0.80931962  0.66344502  0.48027971     0.10800
H135        H  0.84345476  0.68387950  0.04141941     0.15300
H136        H  0.80964051  0.69809035  0.46389808     0.01100
H137        H  0.77642451  0.68306866  0.04346482     0.15600
H138        H  0.81335860  0.63412608  0.00175004     0.15400
C139        C  0.36083229  0.17763096  0.47042928     0.87200
C140        C  0.34552807  0.15675746  0.47231078    -0.53000
C141        C  0.33146078  0.15664029  0.49588886     0.10100
C142        C  0.33488198  0.17550948  0.01780482     0.21100
C143        C  0.34501074  0.19791019  0.47257887    -0.53800
C144        C  0.33145142  0.19846266  0.49659019     0.10200
C145        C  0.37331188  0.17701680  0.49992581    -0.53300
C146        C  0.36040383  0.17471360  0.02510252     0.10800
H147        H  0.34533107  0.14338721  0.45605130     0.15300
H148        H  0.32371770  0.17593374  0.03697260     0.01100
H149        H  0.34423337  0.21050572  0.45552934     0.15600
H150        H  0.39141678  0.17533873  0.50181790     0.15400
C151        C  0.19104489  0.34632864  0.03176079     0.87200
C152        C  0.16908543  0.33263045  0.02901088    -0.53000
C153        C  0.16795129  0.31918521  0.00473031     0.10100
C154        C  0.18533188  0.32186569  0.48527537     0.21100
C155        C  0.20983495  0.32892748  0.02847541    -0.53800
C156        C  0.20924971  0.31568430  0.00373323     0.10200
C157        C  0.19154952  0.35982082  0.00313715    -0.53300
C158        C  0.18716295  0.34750154  0.47938424     0.10800
H159        H  0.15531218  0.33364730  0.04437243     0.15300
H160        H  0.18344995  0.31224829  0.46492778     0.01100
H161        H  0.22241187  0.32711625  0.04541213     0.15600
H162        H  0.19140392  0.37817348  0.00222837     0.15400
N163        N  0.19345211  0.49648851  0.21057550    -0.35900
N164        N  0.19447602  0.46106617  0.25510295    -0.56500
N165        N  0.18130147  0.49454234  0.29802432    -0.35900
N166        N  0.18227371  0.52999759  0.25340999    -0.56500
C167        C  0.20349390  0.47934420  0.19605935     0.27700
C168        C  0.19758846  0.51571504  0.19546681     0.27700
C169        C  0.18579480  0.47681612  0.31574596     0.27700
C170        C  0.18070882  0.51343236  0.31482948     0.27700
C171        C  0.19604022  0.44801866  0.23090081     0.36300
C172        C  0.19043521  0.44689327  0.27762848     0.36300
C173        C  0.17939635  0.54273625  0.22931880     0.36300
C174        C  0.17382600  0.54201475  0.27592278     0.36300
C175        C  0.21430806  0.48771290  0.17157276    -0.21200
C176        C  0.21079926  0.51074626  0.17137053    -0.21200
C177        C  0.18736346  0.48460117  0.34425566    -0.21200
C178        C  0.18460244  0.50761820  0.34357512    -0.21200
C179        C  0.19345111  0.42542106  0.23814294    -0.22200
C180        C  0.19028721  0.42467704  0.26776056    -0.22200
C181        C  0.16894902  0.56292917  0.23655754    -0.22200
C182        C  0.16557111  0.56253890  0.26616287    -0.22200
C183        C  0.20104363  0.45612587  0.20262351    -0.17600
C184        C  0.18792141  0.53711260  0.20146213    -0.17600
C185        C  0.17531627  0.53560982  0.30544136    -0.17600
C186        C  0.18741484  0.45372207  0.30707380    -0.17600
H187        H  0.22338203  0.47810904  0.15525358     0.15300
H188        H  0.21653370  0.52237532  0.15476928     0.15300
H189        H  0.19000920  0.47494098  0.36385678     0.15300
H190        H  0.18489401  0.51870568  0.36237848     0.15300
H191        H  0.19417369  0.41092238  0.22371209     0.13600
H192        H  0.18803379  0.40946196  0.28045031     0.13600
H193        H  0.16470335  0.57671950  0.22216242     0.13600
H194        H  0.15816006  0.57593413  0.27910954     0.13600
H195        H  0.18170385  0.49453629  0.22717986     0.26900
H196        H  0.17660602  0.49352370  0.27631591     0.26900
N197        N  0.51198168  0.18537130  0.29103072    -0.35900
N198        N  0.54532701  0.18749039  0.24513963    -0.56500
N199        N  0.50912966  0.18206817  0.20222586    -0.35900
N200        N  0.47584178  0.18178705  0.24804069    -0.56500
C201        C  0.53042686  0.19174586  0.30634148     0.27700
C202        C  0.49377649  0.18975204  0.30785727     0.27700
C203        C  0.52661776  0.18755865  0.18464222     0.27700
C204        C  0.48993910  0.18450480  0.18656469     0.27700
C205        C  0.55938888  0.18534124  0.26819035     0.36300
C206        C  0.55795726  0.18449786  0.22088283     0.36300
C207        C  0.46384018  0.17833371  0.27263352     0.36300
C208        C  0.46233117  0.17582018  0.22558352     0.36300
C209        C  0.52386382  0.20045615  0.33309618    -0.21200
C210        C  0.50077020  0.19892118  0.33420861    -0.21200
C211        C  0.51833539  0.19338279  0.15739695    -0.21200
C212        C  0.49526770  0.19186673  0.15880976    -0.21200
C213        C  0.58111148  0.18133345  0.25850294    -0.22200
C214        C  0.58026719  0.18108445  0.22861182    -0.22200
C215        C  0.44252554  0.17029945  0.26577534    -0.22200
C216        C  0.44160396  0.16862345  0.23595407    -0.22200
C217        C  0.55304729  0.18818077  0.29778208    -0.17600
C218        C  0.47119348  0.18414672  0.30096483    -0.17600
C219        C  0.46793090  0.17849846  0.19585190    -0.17600
C220        C  0.54981003  0.18549609  0.19181775    -0.17600
H221        H  0.53465909  0.20659353  0.35039848     0.15300
H222        H  0.49034373  0.20371438  0.35255201     0.15300
H223        H  0.52771894  0.19785530  0.13808706     0.15300
H224        H  0.48377312  0.19495940  0.14100849     0.15300
H225        H  0.59608550  0.17906674  0.27154334     0.13600
H226        H  0.59453354  0.17867100  0.21428211     0.13600
H227        H  0.42892937  0.16641140  0.28067023     0.13600
H228        H  0.42719669  0.16311937  0.22334904     0.13600
H229        H  0.51198396  0.17588692  0.27191821     0.26900
H230        H  0.51048077  0.17424340  0.22236789     0.26900
C231        C  0.65817486  0.18432582  0.02082521     0.87200
C232        C  0.67489890  0.16498417  0.01705080    -0.53000
C233        C  0.68899779  0.16708514  0.99385388     0.10100
C234        C  0.68492177  0.18858134  0.47726037     0.21100
C235        C  0.67278163  0.20598980  0.02132911    -0.53800
C236        C  0.68711262  0.20842285  0.99814940     0.10200
C237        C  0.64588586  0.18643009  0.99165337    -0.53300
C238        C  0.65944261  0.18810586  0.46925074     0.10800
H239        H  0.67568247  0.15073229  0.03189213     0.15300
H240        H  0.69660359  0.19009833  0.45883797     0.01100
H241        H  0.67187331  0.21861294  0.03850592     0.15600
H242        H  0.62770750  0.18714460  0.99013976     0.15400
C243        C  0.82075479  0.36536307  0.47218949     0.87200
C244        C  0.84231861  0.35148802  0.47566376    -0.53000
C245        C  0.84305641  0.33860288  0.50012034     0.10100
C246        C  0.82168793  0.34058042  0.02048237     0.28700
C247        C  0.80166666  0.34773684  0.47419798    -0.53800
C248        C  0.80220332  0.33488114  0.49882845     0.10200
C249        C  0.81763364  0.37872944  0.50054483    -0.53300
C250        C  0.81883602  0.36615628  0.02765760     0.10800
H251        H  0.85550436  0.35103963  0.45924720     0.15300
H252        H  0.82223695  0.32914233  0.03941883     0.01100
H253        H  0.78843377  0.34559362  0.45817999     0.15600
H254        H  0.81419804  0.39672916  0.50048549     0.15400
N255        N  0.81718171  0.51639332  0.29710239    -0.35900
N256        N  0.81761530  0.48169175  0.25078057    -0.56500
N257        N  0.81690783  0.51703538  0.20744911    -0.35900
N258        N  0.81898951  0.55184872  0.25379892    -0.56500
C259        C  0.82021198  0.49747955  0.31315501     0.27700
C260        C  0.81984568  0.53451626  0.31502372     0.27700
C261        C  0.82053894  0.49877142  0.19006727     0.27700
C262        C  0.82083950  0.53576391  0.19136964     0.27700
C263        C  0.81386840  0.46835600  0.27409932     0.36300
C264        C  0.81366339  0.46877678  0.22694029     0.36300
C265        C  0.81696234  0.56522136  0.27771438     0.36300
C266        C  0.81687327  0.56549101  0.23037108     0.36300
C267        C  0.82468149  0.50362294  0.34172932    -0.21200
C268        C  0.82410709  0.52684445  0.34301835    -0.21200
C269        C  0.82659926  0.50603189  0.16249471    -0.21200
C270        C  0.82661684  0.52931496  0.16323369    -0.21200
C271        C  0.80758969  0.44682168  0.26502796    -0.22200
C272        C  0.80738737  0.44711476  0.23514876    -0.22200
C273        C  0.81434672  0.58757198  0.26931097    -0.22200
C274        C  0.81412805  0.58771756  0.23944410    -0.22200
C275        C  0.81747105  0.47478672  0.30342129    -0.17600
C276        C  0.81748701  0.55768680  0.30710411    -0.17600
C277        C  0.81808078  0.55850690  0.20079990    -0.17600
C278        C  0.81737087  0.47576538  0.19792259    -0.17600
H279        H  0.82748842  0.49251945  0.36004128     0.15300
H280        H  0.82633795  0.53671355  0.36265952     0.15300
H281        H  0.83033240  0.49564480  0.14364472     0.15300
H282        H  0.83037165  0.54020462  0.14497075     0.15300
H283        H  0.80385217  0.43231784  0.27853861     0.13600
H284        H  0.80354406  0.43289076  0.22106808     0.13600
H285        H  0.81269087  0.60231443  0.28317730     0.13600
H286        H  0.81228095  0.60256885  0.22595611     0.13600
H287        H  0.81125649  0.51675620  0.27598272     0.26900
H288        H  0.80966201  0.51691462  0.22795484     0.26900
C289        C  0.80718318  0.38838578  0.10540992    -0.11200
C290        C  0.81904510  0.40899925  0.10437134     0.11400
C291        C  0.83286308  0.41367803  0.08004272    -0.03000
C292        C  0.83389030  0.39774878  0.05736652    -0.05700
C293        C  0.82050325  0.37799243  0.05679308    -0.16500
C294        C  0.80746853  0.37274907  0.08191594     0.02400
C295        C  0.81736693  0.42524117  0.12928510     0.12400
C296        C  0.84578890  0.43586637  0.07729664     0.63000
H297        H  0.84465929  0.40119315  0.03894334     0.12400
C298        C  0.79403910  0.35100036  0.08449203     0.55100
H299        H  0.79748294  0.38476576  0.12482563     0.08200
C300        C  0.79876330  0.43997336  0.13298091    -0.05600
C301        C  0.79924391  0.45596302  0.15589468    -0.06300
C302        C  0.81790905  0.45804963  0.17447334    -0.15900
C303        C  0.83669664  0.44364086  0.17030206    -0.01500
C304        C  0.83569662  0.42692109  0.14839770    -0.09100
C305        C  0.77870413  0.43904707  0.11253470     0.65200
H306        H  0.78514673  0.46724473  0.15931778     0.10700
C307        C  0.85815964  0.44665924  0.18785247     0.63600
H308        H  0.84969268  0.41546975  0.14521695     0.08000
F309        F  0.78004717  0.35118129  0.10863037    -0.19400
F310        F  0.80856288  0.33294281  0.08726136    -0.15700
F311        F  0.78070505  0.34791805  0.06030062    -0.19200
F312        F  0.86195458  0.43746116  0.09878875    -0.22500
F313        F  0.83113728  0.45389807  0.07986008    -0.24000
F314        F  0.85660118  0.43768307  0.05067303    -0.18000
F315        F  0.85417798  0.44215011  0.21687241    -0.20500
F316        F  0.86587373  0.46865759  0.18509922    -0.21700
F317        F  0.87505023  0.43231051  0.17835009    -0.18800
F318        F  0.76301811  0.45559525  0.11907216    -0.18900
F319        F  0.76817352  0.41822955  0.11465006    -0.22800
F320        F  0.78575673  0.44225734  0.08414687    -0.24400
C321        C  0.83592101  0.42609522  0.35185747    -0.11200
C322        C  0.81686436  0.42347869  0.36961015     0.11400
C323        C  0.79827562  0.43817282  0.36627417    -0.03000
C324        C  0.79865351  0.45389212  0.34339124    -0.05700
C325        C  0.81774169  0.45657627  0.32571353    -0.16500
C326        C  0.83700750  0.44304834  0.33051853     0.02400
C327        C  0.81842786  0.40768360  0.39443312     0.12400
C328        C  0.77893332  0.43831922  0.38798754     0.63000
H329        H  0.78446322  0.46501493  0.33990214     0.12400
C330        C  0.85894242  0.44743572  0.31441722     0.55100
H331        H  0.85034739  0.41538537  0.35585413     0.08200
C332        C  0.81027301  0.38525344  0.39334541    -0.05600
C333        C  0.81139972  0.37207220  0.41879105    -0.06300
C334        C  0.82158949  0.38015739  0.44468187    -0.15900
C335        C  0.83330046  0.40140090  0.44332567    -0.01500
C336        C  0.82993464  0.41528161  0.41905774    -0.09100
C337        C  0.80175544  0.37491672  0.36504663     0.65200
H338        H  0.80521728  0.35490375  0.41789673     0.10700
C339        C  0.84982883  0.41065893  0.46581121     0.63600
H340        H  0.83724268  0.43213927  0.41873776     0.08000
F341        F  0.85609504  0.44383405  0.28492457    -0.19400
F342        F  0.87602575  0.43340368  0.32391249    -0.15700
F343        F  0.86571287  0.46958274  0.31904371    -0.19200
F344        F  0.78710366  0.44331155  0.41545141    -0.22500
F345        F  0.76842171  0.41745848  0.38870791    -0.24000
F346        F  0.76291930  0.45437893  0.38105218    -0.18000
F347        F  0.86819398  0.42018073  0.45178153    -0.20500
F348        F  0.85831425  0.39439994  0.48414099    -0.21700
F349        F  0.83943657  0.42738803  0.48205873    -0.18800
F350        F  0.79367809  0.35313275  0.36898598    -0.18900
F351        F  0.81923809  0.37407285  0.34517229    -0.22800
F352        F  0.78456773  0.38771368  0.35348542    -0.24400
C353        C  0.74738051  0.30165572  0.50426092    -0.11200
C354        C  0.75594497  0.27891998  0.00152276     0.11400
C355        C  0.77940961  0.27539844  0.99794307    -0.03000
C356        C  0.79395856  0.29425441  0.99907462    -0.05700
C357        C  0.78570958  0.31629705  0.50334909    -0.16500
C358        C  0.76217704  0.32025568  0.50538756     0.02400
C359        C  0.73893669  0.26040941  0.00079213     0.12400
C360        C  0.79000736  0.25256787  0.99143567     0.63000
H361        H  0.81188602  0.29169020  0.99619491     0.12400
C362        C  0.75167586  0.34363800  0.50747151     0.55100
H363        H  0.72939462  0.30445716  0.50606633     0.08200
C364        C  0.73284242  0.24831617  0.02605384    -0.05600
C365        C  0.71601713  0.23159873  0.02392565    -0.06300
C366        C  0.70458143  0.22693771  0.99763895    -0.15900
C367        C  0.70768962  0.24121942  0.47412985    -0.01500
C368        C  0.72521457  0.25743781  0.47512198    -0.09100
C369        C  0.74397774  0.25324725  0.05515948     0.65200
H370        H  0.71176319  0.22184955  0.04305658     0.10700
C371        C  0.69170256  0.24121829  0.44833571     0.63600
H372        H  0.72847540  0.26815413  0.45649880     0.08000
F373        F  0.73505523  0.34367956  0.52861394    -0.19400
F374        F  0.74203214  0.34890799  0.48098196    -0.15700
F375        F  0.76693971  0.36043007  0.51464688    -0.19200
F376        F  0.79968627  0.25321417  0.96403862    -0.22500
F377        F  0.77483521  0.23479863  0.99201368    -0.24000
F378        F  0.80666304  0.24825742  0.01166555    -0.18000
F379        F  0.66966292  0.24108356  0.45808984    -0.20500
F380        F  0.69540850  0.22260268  0.43080595    -0.21700
F381        F  0.69456461  0.26032538  0.43134732    -0.18800
F382        F  0.73487605  0.24030694  0.07734387    -0.18900
F383        F  0.74112198  0.27579209  0.06243341    -0.22800
F384        F  0.76672856  0.24860265  0.05344677    -0.24400
C385        C  0.58809547  0.17350277  0.36506405    -0.11200
C386        C  0.60356549  0.19148031  0.36570815     0.11400
C387        C  0.60387198  0.20724106  0.34260110    -0.03000
C388        C  0.58692896  0.20590600  0.32114118    -0.05700
C389        C  0.57086066  0.18835019  0.32098715    -0.16500
C390        C  0.57205214  0.17127588  0.34265061     0.02400
C391        C  0.61944037  0.19301290  0.39076497     0.12400
C392        C  0.62268801  0.22458613  0.33994710     0.63000
H393        H  0.58628977  0.21836841  0.30394874     0.12400
C394        C  0.55684497  0.15051396  0.34197539     0.55100
H395        H  0.58862589  0.16121730  0.38248965     0.08200
C396        C  0.61442532  0.20596019  0.41585939    -0.05600
C397        C  0.62988898  0.20610306  0.43903143    -0.06300
C398        C  0.64869936  0.19155511  0.43978980    -0.15900
C399        C  0.65343116  0.17821839  0.41459053    -0.01500
C400        C  0.63898530  0.17979238  0.39022943    -0.09100
C401        C  0.59190145  0.21789293  0.41931333     0.65200
H402        H  0.62635616  0.21640263  0.45802852     0.10700
C403        C  0.67247039  0.16123406  0.41360141     0.63600
H404        H  0.64221281  0.16982942  0.37083894     0.08000
F405        F  0.53532015  0.15617945  0.35066060    -0.19400
F406        F  0.56458033  0.13379712  0.36043825    -0.15700
F407        F  0.55611011  0.14150499  0.31415088    -0.19200
F408        F  0.64304233  0.21347542  0.33726891    -0.22500
F409        F  0.62347249  0.23837219  0.36427268    -0.24000
F410        F  0.61995508  0.23821595  0.31578626    -0.18000
F411        F  0.67198413  0.14820487  0.38848146    -0.20500
F412        F  0.67061605  0.14674382  0.43689783    -0.21700
F413        F  0.69296128  0.17227542  0.41434131    -0.18800
F414        F  0.59045276  0.22952491  0.44547599    -0.18900
F415        F  0.57473863  0.20202786  0.41861714    -0.22800
F416        F  0.58859839  0.23321050  0.39713534    -0.24400
C417        C  0.59453816  0.16397131  0.13859681    -0.11200
C418        C  0.59823918  0.18325292  0.12159510     0.11400
C419        C  0.58507171  0.20281487  0.12637857    -0.03000
C420        C  0.57050542  0.20332118  0.15056465    -0.05700
C421        C  0.56644358  0.18390822  0.16742697    -0.16500
C422        C  0.57799163  0.16353264  0.16048334     0.02400
C423        C  0.61456907  0.18175133  0.09722912     0.12400
C424        C  0.58535355  0.22236487  0.10495953     0.63000
H425        H  0.56132931  0.21863048  0.15574057     0.12400
C426        C  0.57341461  0.14081467  0.17477142     0.55100
H427        H  0.60402716  0.14874828  0.13381118     0.08200
C428        C  0.63700395  0.18942261  0.09983977    -0.05600
C429        C  0.65075347  0.18929287  0.07486237    -0.06300
C430        C  0.64309108  0.18085409  0.04776445    -0.15900
C431        C  0.62224836  0.16863596  0.04757513    -0.01500
C432        C  0.60771771  0.17094525  0.07157567    -0.09100
C433        C  0.64656232  0.19679124  0.12908373     0.65200
H434        H  0.66782797  0.19551534  0.07661950     0.10700
C435        C  0.61482204  0.15179509  0.02428777     0.63600
H436        H  0.59107131  0.16335177  0.07080603     0.08000
F437        F  0.59210559  0.13442955  0.19061844    -0.19400
F438        F  0.56947805  0.12472073  0.15339249    -0.15700
F439        F  0.55492126  0.14090440  0.19303815    -0.19200
F440        F  0.58010270  0.21440583  0.07742323    -0.22500
F441        F  0.60635841  0.23241384  0.10411410    -0.24000
F442        F  0.56974098  0.23877279  0.11229656    -0.18000
F443        F  0.60634150  0.13251955  0.03746041    -0.20500
F444        F  0.63218903  0.14477998  0.00645509    -0.21700
F445        F  0.59793281  0.16121588  0.00761450    -0.18800
F446        F  0.66898502  0.20306616  0.12696977    -0.18900
F447        F  0.64500501  0.17904497  0.14851849    -0.22800
F448        F  0.63473346  0.21498415  0.14011875    -0.24400
C449        C  0.20254044  0.37197314  0.40512806    -0.11200
C450        C  0.18537397  0.38804632  0.40161478     0.11400
C451        C  0.16789635  0.38926842  0.42272383    -0.03000
C452        C  0.16807826  0.37393675  0.44610512    -0.05700
C453        C  0.18593393  0.35882095  0.45049224    -0.16500
C454        C  0.20389059  0.35834232  0.43020608     0.02400
C455        C  0.18689364  0.40421396  0.37666586     0.12400
C456        C  0.14986148  0.40748675  0.42181463     0.63000
H457        H  0.15481070  0.37449802  0.46230141     0.12400
C458        C  0.22513637  0.34496842  0.43613211     0.55100
H459        H  0.21554764  0.37097339  0.38865512     0.08200
C460        C  0.20436390  0.42059203  0.37438686    -0.05600
C461        C  0.20472257  0.43500750  0.35003670    -0.06300
C462        C  0.18668306  0.43592781  0.33029860    -0.15900
C463        C  0.16842117  0.42055618  0.33383613    -0.01500
C464        C  0.16983963  0.40389050  0.35555636    -0.09100
C465        C  0.22184568  0.42387589  0.39820999     0.65200
H466        H  0.21860983  0.44671455  0.34708964     0.10700
C467        C  0.14667986  0.42128272  0.31647875     0.63600
H468        H  0.15673085  0.39114555  0.35697422     0.08000
F469        F  0.24140259  0.34857495  0.41501888    -0.19400
F470        F  0.22023955  0.32215799  0.43667578    -0.15700
F471        F  0.23410814  0.35143716  0.46269184    -0.19200
F472        F  0.13525471  0.40351691  0.39899610    -0.22500
F473        F  0.15976107  0.42854642  0.41850367    -0.24000
F474        F  0.13725276  0.40800485  0.44718953    -0.18000
F475        F  0.14436123  0.40140710  0.30075541    -0.20500
F476        F  0.14550103  0.43927691  0.29746633    -0.21700
F477        F  0.12872140  0.42312320  0.33555908    -0.18800
F478        F  0.23401475  0.44368220  0.39439202    -0.18900
F479        F  0.23685195  0.40608424  0.39818490    -0.22800
F480        F  0.21136018  0.42518127  0.42507901    -0.24400
C481        C  0.18778441  0.37161669  0.11039421    -0.11200
C482        C  0.19872870  0.39235647  0.10645958     0.11400
C483        C  0.20964284  0.39682692  0.07981952    -0.03000
C484        C  0.20716030  0.38120642  0.05686110    -0.05700
C485        C  0.19415406  0.36115495  0.05943514    -0.16500
C486        C  0.18659862  0.35522874  0.08806234     0.02400
C487        C  0.19920590  0.40873029  0.13106314     0.12400
C488        C  0.22425223  0.41779176  0.07591079     0.63000
H489        H  0.21609775  0.38447027  0.03683000     0.12400
C490        C  0.17886166  0.33175852  0.09712181     0.55100
H491        H  0.18067650  0.36796646  0.13162830     0.08200
C492        C  0.18159989  0.42442277  0.13554642    -0.05600
C493        C  0.18321205  0.43966536  0.15902069    -0.06300
C494        C  0.20184425  0.43981050  0.17781795    -0.15900
C495        C  0.21972287  0.42438558  0.17291571    -0.01500
C496        C  0.21773021  0.40864294  0.14998699    -0.09100
C497        C  0.16110313  0.42485011  0.11579698     0.65200
H498        H  0.16974517  0.45158269  0.16314339     0.10700
C499        C  0.24125033  0.42391299  0.19064949     0.63600
H500        H  0.23107566  0.39647671  0.14631631     0.08000
F501        F  0.15565620  0.33033954  0.09596196    -0.19400
F502        F  0.18550562  0.32732094  0.12542171    -0.15700
F503        F  0.18832788  0.31514636  0.08004110    -0.19200
F504        F  0.24246708  0.41675285  0.09454729    -0.22500
F505        F  0.21204602  0.43710369  0.08206752    -0.24000
F506        F  0.23239669  0.41962627  0.04776384    -0.18000
F507        F  0.24208115  0.40397140  0.20624926    -0.20500
F508        F  0.24315283  0.44186269  0.20986422    -0.21700
F509        F  0.25957487  0.42473655  0.17203377    -0.18800
F510        F  0.14633418  0.44196252  0.12342526    -0.18900
F511        F  0.14971684  0.40446588  0.11763362    -0.22800
F512        F  0.16765170  0.42830243  0.08726964    -0.24400
C513        C  0.24059047  0.26225226  0.48333719    -0.11200
C514        C  0.26343794  0.26615845  0.00068308     0.11400
C515        C  0.26614923  0.28766659  0.01382866    -0.03000
C516        C  0.24904756  0.30375002  0.01041863    -0.05700
C517        C  0.22781119  0.29848894  0.99818236    -0.16500
C518        C  0.22216998  0.27745002  0.48370284     0.02400
C519        C  0.28115672  0.24828994  0.00221382     0.12400
C520        C  0.28661873  0.29385510  0.03216068     0.63000
H521        H  0.25219337  0.32070963  0.01840236     0.12400
C522        C  0.20105070  0.27005934  0.46754988     0.55100
H523        H  0.23982663  0.24695451  0.47033238     0.08200
C524        C  0.27776758  0.22732423  0.01664162    -0.05600
C525        C  0.29504305  0.21098386  0.01566666    -0.06300
C526        C  0.31440307  0.21695092  0.50127721    -0.15900
C527        C  0.31778513  0.23948462  0.49121645    -0.01500
C528        C  0.29908487  0.25377412  0.48829655    -0.09100
C529        C  0.25633908  0.22234689  0.03360778     0.65200
H530        H  0.29178938  0.19425983  0.02413774     0.10700
C531        C  0.34075644  0.25007959  0.48568867     0.63600
H532        H  0.30129946  0.27016100  0.47815302     0.08000
F533        F  0.20158670  0.24728250  0.46033171    -0.19400
F534        F  0.19910254  0.28193422  0.44186410    -0.15700
F535        F  0.18226744  0.27318488  0.48464373    -0.19200
F536        F  0.30442343  0.29972343  0.01431635    -0.22500
F537        F  0.29280792  0.27591941  0.04964478    -0.24000
F538        F  0.28217229  0.31207080  0.05032522    -0.18000
F539        F  0.34405279  0.25271567  0.45608745    -0.20500
F540        F  0.35815237  0.23752563  0.49728990    -0.21700
F541        F  0.34171715  0.27120978  0.49876386    -0.18800
F542        F  0.25812903  0.20261030  0.04957404    -0.18900
F543        F  0.23831415  0.21989952  0.01489966    -0.22800
F544        F  0.25206180  0.23987294  0.05287605    -0.24400
C545        C  0.38067887  0.16542994  0.10429567    -0.11200
C546        C  0.40069810  0.17808159  0.10400244     0.11400
C547        C  0.40616968  0.19096139  0.07913115    -0.03000
C548        C  0.39115811  0.19095013  0.05547011    -0.05700
C549        C  0.37165469  0.17718747  0.05457784    -0.16500
C550        C  0.36593689  0.16466436  0.08007817     0.02400
C551        C  0.41615154  0.17703066  0.12957123     0.12400
C552        C  0.42849950  0.20354811  0.07682002     0.63000
H553        H  0.39523108  0.20105579  0.03656725     0.12400
C554        C  0.34457506  0.15068670  0.08260802     0.55100
H555        H  0.37678914  0.15597302  0.12382089     0.08200
C556        C  0.41520623  0.19302334  0.15256710    -0.05600
C557        C  0.43250140  0.19312818  0.17357577    -0.06300
C558        C  0.44956928  0.17669244  0.17350651    -0.15900
C559        C  0.44874169  0.15894365  0.15260842    -0.01500
C560        C  0.43238618  0.15983530  0.13039410    -0.09100
C561        C  0.39560160  0.20932207  0.15534704     0.65200
H562        H  0.43277566  0.20598436  0.19044289     0.10700
C563        C  0.46441789  0.13872853  0.15443923     0.63600
H564        H  0.43222128  0.14716682  0.11328711     0.08000
F565        F  0.32631812  0.16489867  0.08579280    -0.19400
F566        F  0.34507505  0.13649390  0.10651587    -0.15700
F567        F  0.34173331  0.13727081  0.05835664    -0.19200
F568        F  0.44600153  0.18821216  0.07795572    -0.22500
F569        F  0.43084070  0.21884398  0.09943266    -0.24000
F570        F  0.43032408  0.21539696  0.05097866    -0.18000
F571        F  0.45851437  0.12196058  0.13471644    -0.20500
F572        F  0.46334450  0.12955814  0.18206794    -0.21700
F573        F  0.48632966  0.14514179  0.14862073    -0.18800
F574        F  0.39743667  0.22278942  0.17996642    -0.18900
F575        F  0.37572905  0.19716283  0.15735518    -0.22800
F576        F  0.39452327  0.22329898  0.13137033    -0.24400
C577        C  0.38519894  0.17413213  0.39163764    -0.11200
C578        C  0.40728755  0.18159270  0.39617263     0.11400
C579        C  0.41358532  0.18995809  0.42376983    -0.03000
C580        C  0.39786029  0.18890592  0.44660572    -0.05700
C581        C  0.37606172  0.17943986  0.44318204    -0.16500
C582        C  0.36899378  0.17412681  0.41409625     0.02400
C583        C  0.42316960  0.18163681  0.37117356     0.12400
C584        C  0.43681139  0.20014289  0.42901048     0.63000
H585        H  0.40254861  0.19645464  0.46711542     0.12400
C586        C  0.34495130  0.16904078  0.40447450     0.55100
H587        H  0.38037438  0.16892086  0.36984558     0.08200
C588        C  0.43559565  0.16214954  0.36329621    -0.05600
C589        C  0.45122052  0.16371942  0.34034429    -0.06300
C590        C  0.45436103  0.18395261  0.32498922    -0.15900
C591        C  0.44152742  0.20329484  0.33235475    -0.01500
C592        C  0.42595663  0.20173621  0.35538504    -0.09100
C593        C  0.43214616  0.13981341  0.37893697     0.65200
H594        H  0.46107501  0.14911399  0.33400279     0.10700
C595        C  0.44442986  0.22543142  0.31605757     0.63600
H596        H  0.41598334  0.21629740  0.36157296     0.08000
F597        F  0.34272525  0.14609363  0.39919045    -0.19400
F598        F  0.34043913  0.18051237  0.37891384    -0.15700
F599        F  0.32876458  0.17571075  0.42419751    -0.19200
F600        F  0.43956543  0.21926595  0.41213227    -0.22500
F601        F  0.45329670  0.18464107  0.42178005    -0.24000
F602        F  0.43993094  0.20633763  0.45782908    -0.18000
F603        F  0.43975287  0.22218861  0.28686606    -0.20500
F604        F  0.46629629  0.23318691  0.31892034    -0.21700
F605        F  0.43018696  0.24206577  0.32658246    -0.18800
F606        F  0.44637949  0.12316261  0.36842594    -0.18900
F607        F  0.41022001  0.13248051  0.37508897    -0.22800
F608        F  0.43625869  0.14246864  0.40836528    -0.24400
C609        C  0.79786653  0.61686858  0.42460236    -0.11200
C610        C  0.81081797  0.62411054  0.40094901     0.11400
C611        C  0.81988939  0.64632781  0.40117979    -0.03000
C612        C  0.81883557  0.65912479  0.42724884    -0.05700
C613        C  0.80697730  0.65121594  0.45175181    -0.16500
C614        C  0.79446137  0.63066059  0.44913501     0.02400
C615        C  0.81353531  0.60812013  0.37601197     0.12400
C616        C  0.82943707  0.65679699  0.37365557     0.63000
H617        H  0.82750040  0.67522789  0.42866846     0.12400
C618        C  0.77681158  0.62276918  0.47091096     0.55100
H619        H  0.78974721  0.60041578  0.42347261     0.08200
C620        C  0.83279077  0.59422269  0.37299596    -0.05600
C621        C  0.83403021  0.57921887  0.34907372    -0.06300
C622        C  0.81533710  0.57506989  0.33097096    -0.15900
C623        C  0.79509164  0.58725574  0.33627331    -0.01500
C624        C  0.79505967  0.60444448  0.35760133    -0.09100
C625        C  0.85090014  0.59372968  0.39636599     0.65200
H626        H  0.84921514  0.56953348  0.34532864     0.10700
C627        C  0.77284446  0.58252499  0.32106216     0.63600
H628        H  0.77988168  0.61423791  0.36115121     0.08000
F629        F  0.78555453  0.60554441  0.48770941    -0.19400
F630        F  0.75816740  0.61450283  0.45620968    -0.15700
F631        F  0.76767309  0.64379903  0.98302178    -0.19200
F632        F  0.81288774  0.65711678  0.35251598    -0.22500
F633        F  0.84746552  0.64444989  0.36333780    -0.24000
F634        F  0.83662829  0.67882288  0.37833938    -0.18000
F635        F  0.75627338  0.57908836  0.34180484    -0.20500
F636        F  0.77324707  0.56357955  0.30336310    -0.21700
F637        F  0.76703875  0.60103247  0.30438818    -0.18800
F638        F  0.86747912  0.57804930  0.39002794    -0.18900
F639        F  0.84124997  0.58782747  0.42270254    -0.22800
F640        F  0.86104533  0.61465235  0.39933226    -0.24400
C641        C  0.81759174  0.64661401  0.11007209    -0.11200
C642        C  0.81313115  0.62343173  0.10706626     0.11400
C643        C  0.80516577  0.61499134  0.08022016    -0.03000
C644        C  0.80232970  0.63010508  0.05712196    -0.05700
C645        C  0.80911609  0.65305424  0.05860258    -0.16500
C646        C  0.81509086  0.66184087  0.08668701     0.02400
C647        C  0.81519516  0.60848685  0.13285339     0.12400
C648        C  0.79980499  0.59000382  0.07568787     0.63000
H649        H  0.79409581  0.62376673  0.03785753     0.12400
C650        C  0.81864393  0.68676055  0.09392135     0.55100
H651        H  0.82270837  0.65293558  0.13125292     0.08200
C652        C  0.83617727  0.60010979  0.14256873    -0.05600
C653        C  0.83640466  0.58444917  0.16559767    -0.06300
C654        C  0.81636135  0.57623713  0.17798756    -0.15900
C655        C  0.79536422  0.58460236  0.16807221    -0.01500
C656        C  0.79530498  0.60124539  0.14639029    -0.09100
C657        C  0.85807619  0.60709753  0.12803327     0.65200
H658        H  0.85222532  0.57783120  0.17352284     0.10700
C659        C  0.77251188  0.57624658  0.17847914     0.63600
H660        H  0.77935522  0.60790572  0.13885262     0.08000
F661        F  0.84145095  0.69140554  0.09517829    -0.19400
F662        F  0.80927201  0.69167334  0.12082920    -0.15700
F663        F  0.80864726  0.70106737  0.07424147    -0.19200
F664        F  0.78070611  0.58417501  0.09116435    -0.22500
F665        F  0.81762416  0.57687828  0.08495837    -0.24000
F666        F  0.79602024  0.58490493  0.04664676    -0.18000
F667        F  0.76059663  0.59422213  0.19008763    -0.20500
F668        F  0.77368358  0.55950505  0.19929768    -0.21700
F669        F  0.76070532  0.56763345  0.15494011    -0.18800
F670        F  0.87641959  0.59612956  0.13996843    -0.18900
F671        F  0.86137483  0.63012518  0.13130957    -0.22800
F672        F  0.85730143  0.60183988  0.09868852    -0.24400
C673        C  0.69316716  0.75448822  0.49265964    -0.11200
C674        C  0.71531453  0.76198706  0.99960191     0.11400
C675        C  0.71952401  0.78271622  0.01425186    -0.03000
C676        C  0.70261882  0.79944578  0.01457869    -0.05700
C677        C  0.67942290  0.79198486  0.50662596    -0.16500
C678        C  0.67522217  0.76995509  0.49482231     0.02400
C679        C  0.73258404  0.74363773  0.99762122     0.12400
C680        C  0.74173912  0.78710883  0.02966455     0.63000
H681        H  0.70655736  0.81589860  0.02359362     0.12400
C682        C  0.65208940  0.76132447  0.48586225     0.55100
H683        H  0.69052502  0.73840517  0.48173407     0.08200
C684        C  0.73094379  0.72349931  0.01387054    -0.05600
C685        C  0.74816635  0.70729722  0.01131896    -0.06300
C686        C  0.76820110  0.71096043  0.99513310    -0.15900
C687        C  0.76892452  0.73008681  0.48266259    -0.01500
C688        C  0.75014833  0.74475459  0.48416497    -0.09100
C689        C  0.71132502  0.71926241  0.03449507     0.65200
H690        H  0.74577312  0.69140771  0.02238244     0.10700
C691        C  0.78756313  0.73662259  0.46156705     0.63600
H692        H  0.74944218  0.75974563  0.47073223     0.08000
F693        F  0.64976964  0.73870315  0.49309192    -0.19400
F694        F  0.64957014  0.76324783  0.45604941    -0.15700
F695        F  0.63499102  0.77280028  0.50000127    -0.19200
F696        F  0.75901456  0.78846116  0.00956804    -0.22500
F697        F  0.74614433  0.76972240  0.04888438    -0.24000
F698        F  0.74137958  0.80714539  0.04539026    -0.18000
F699        F  0.78777663  0.72158517  0.43843606    -0.20500
F700        F  0.80810193  0.73711000  0.47548624    -0.21700
F701        F  0.78441743  0.75797527  0.44995369    -0.18800
F702        F  0.71475118  0.70034158  0.05157706    -0.18900
F703        F  0.69177428  0.71588459  0.01880293    -0.22800
F704        F  0.70856071  0.73760981  0.05293850    -0.24400
C705        C  0.56941517  0.84595129  0.13744251    -0.11200
C706        C  0.58652837  0.82967746  0.13866754     0.11400
C707        C  0.58823447  0.81573652  0.16349412    -0.03000
C708        C  0.57031540  0.81562448  0.18368655    -0.05700
C709        C  0.55245468  0.83118001  0.18177647    -0.16500
C710        C  0.55300374  0.84776980  0.15948970     0.02400
C711        C  0.60282651  0.82846133  0.11403271     0.12400
C712        C  0.60964071  0.80261199  0.16969713     0.63000
H713        H  0.57051661  0.80392967  0.20177123     0.12400
C714        C  0.53739020  0.86811436  0.15990587     0.55100
H715        H  0.56921301  0.85748995  0.11917694     0.08200
C716        C  0.60038479  0.81248277  0.09118772    -0.05600
C717        C  0.61531698  0.81350139  0.06735545    -0.06300
C718        C  0.63067830  0.83150173  0.06385548    -0.15900
C719        C  0.63258668  0.84781104  0.08650029    -0.01500
C720        C  0.61924693  0.84544761  0.11174590    -0.09100
C721        C  0.58048425  0.79621325  0.09022130     0.65200
H722        H  0.61349815  0.80152387  0.04959349     0.10700
C723        C  0.64703429  0.86868118  0.08298919     0.63600
H724        H  0.62036092  0.85782890  0.12914057     0.08000
F725        F  0.51576897  0.86181216  0.15240616    -0.19400
F726        F  0.54442455  0.88457313  0.14051436    -0.15700
F727        F  0.53718485  0.87772734  0.18742204    -0.19200
F728        F  0.62761224  0.81753895  0.17090562    -0.22500
F729        F  0.61378139  0.78682489  0.14813926    -0.24000
F730        F  0.60844725  0.79141239  0.19606484    -0.18000
F731        F  0.64575449  0.88296844  0.10689919    -0.20500
F732        F  0.63973006  0.88055448  0.05892373    -0.21700
F733        F  0.66924471  0.86236318  0.07957134    -0.18800
F734        F  0.58136823  0.78206768  0.06614899    -0.18900
F735        F  0.56072926  0.80847357  0.08882221    -0.22800
F736        F  0.57988059  0.78279039  0.11471427    -0.24400
C737        C  0.58159931  0.84030751  0.43306979    -0.11200
C738        C  0.59121618  0.83500778  0.40612565     0.11400
C739        C  0.61488452  0.83468090  0.40324304    -0.03000
C740        C  0.62796662  0.83531431  0.42871232    -0.05700
C741        C  0.61824605  0.83866028  0.45646001    -0.16500
C742        C  0.59497451  0.84471346  0.45758415     0.02400
C743        C  0.57598353  0.83285149  0.38086634     0.12400
C744        C  0.62618699  0.83511951  0.37353579     0.63000
H745        H  0.64603354  0.83338628  0.42709724     0.12400
C746        C  0.58406341  0.85917113  0.48116012     0.55100
H747        H  0.56355529  0.84298554  0.43427352     0.08200
C748        C  0.56908368  0.81152231  0.36988192    -0.05600
C749        C  0.55476470  0.81094081  0.34553484    -0.06300
C750        C  0.54552740  0.83085685  0.33417584    -0.15900
C751        C  0.55076897  0.85203127  0.34703707    -0.01500
C752        C  0.56663237  0.85272160  0.36962845    -0.09100
C753        C  0.57524505  0.78968370  0.38529285     0.65200
H754        H  0.54971830  0.79490629  0.33603391     0.10700
C755        C  0.53905415  0.87360894  0.33760470     0.63600
H756        H  0.57143465  0.86875553  0.37935457     0.08000
F757        F  0.57002326  0.84594472  0.49815678    -0.19400
F758        F  0.57112050  0.87587518  0.46841950    -0.15700
F759        F  0.59971539  0.87022640  0.49837693    -0.19200
F760        F  0.61966000  0.85441346  0.35889868    -0.22500
F761        F  0.62012906  0.81643256  0.35717996    -0.24000
F762        F  0.64942889  0.83542746  0.37583022    -0.18000
F763        F  0.54542303  0.89198751  0.35451137    -0.20500
F764        F  0.51599109  0.87098774  0.34027532    -0.21700
F765        F  0.54426839  0.87841450  0.30897253    -0.18800
F766        F  0.56641029  0.77089623  0.37122400    -0.18900
F767        F  0.56670013  0.79018717  0.41330685    -0.22800
F768        F  0.59830564  0.78711833  0.38671262    -0.24400
C769        C  0.36150495  0.83309662  0.39619145    -0.11200
C770        C  0.37936699  0.81770399  0.39559252     0.11400
C771        C  0.38318412  0.80380246  0.42007181    -0.03000
C772        C  0.36869294  0.80576899  0.44428039    -0.05700
C773        C  0.35175224  0.82243817  0.44604940    -0.16500
C774        C  0.34817468  0.83644628  0.42131749     0.02400
C775        C  0.39622130  0.82005821  0.37167615     0.12400
C776        C  0.40324529  0.78790399  0.42134984     0.63000
H777        H  0.37148783  0.79514693  0.46307705     0.12400
C778        C  0.33358218  0.85732353  0.42251590     0.55100
H779        H  0.35962386  0.84413037  0.37758787     0.08200
C780        C  0.39461344  0.80829126  0.34485580    -0.05600
C781        C  0.41174200  0.81143927  0.32389037    -0.06300
C782        C  0.42913129  0.82743567  0.32784176    -0.15900
C783        C  0.42909005  0.84102312  0.35345533    -0.01500
C784        C  0.41324823  0.83632535  0.37539344    -0.09100
C785        C  0.37455387  0.79320276  0.33801412     0.65200
H786        H  0.41161068  0.80151220  0.30402329     0.10700
C787        C  0.44495060  0.86085645  0.35868106     0.63600
H788        H  0.41367561  0.84606278  0.39545906     0.08000
F789        F  0.31214619  0.85212725  0.43187171    -0.19400
F790        F  0.33155115  0.86755249  0.39557816    -0.15700
F791        F  0.34365538  0.87265720  0.44113282    -0.19200
F792        F  0.42303518  0.80004040  0.41820667    -0.22500
F793        F  0.40187670  0.77200560  0.39933033    -0.24000
F794        F  0.40425928  0.77648190  0.44756927    -0.18000
F795        F  0.43270967  0.87938018  0.36814611    -0.20500
F796        F  0.45649812  0.86735819  0.33393853    -0.21700
F797        F  0.46029884  0.85519271  0.38002719    -0.18800
F798        F  0.37595905  0.78401172  0.31029774    -0.18900
F799        F  0.35498373  0.80574792  0.33964210    -0.22800
F800        F  0.37321575  0.77563236  0.35764102    -0.24400
C801        C  0.40921776  0.80937330  0.14510526    -0.11200
C802        C  0.40551241  0.82914085  0.12908645     0.11400
C803        C  0.41614131  0.84962816  0.13749772    -0.03000
C804        C  0.43123776  0.84929324  0.16108219    -0.05700
C805        C  0.43538300  0.82933437  0.17658695    -0.16500
C806        C  0.42404853  0.80908217  0.16887372     0.02400
C807        C  0.38966858  0.82779666  0.10423748     0.12400
C808        C  0.41141919  0.87164816  0.12174190     0.63000
H809        H  0.43995490  0.86459835  0.16769290     0.12400
C810        C  0.42752888  0.78734611  0.18578357     0.55100
H811        H  0.40033056  0.79411115  0.13870746     0.08200
C812        C  0.39631262  0.81957415  0.07666442    -0.05600
C813        C  0.38014967  0.81834888  0.05434716    -0.06300
C814        C  0.35745440  0.82473105  0.05870730    -0.15900
C815        C  0.35046027  0.82940161  0.08800206    -0.01500
C816        C  0.36698406  0.83233393  0.10958005    -0.09100
C817        C  0.42027745  0.81167799  0.07108263     0.65200
H818        H  0.38522847  0.81156704  0.03352521     0.10700
C819        C  0.32619403  0.83017825  0.09861706     0.63600
H820        H  0.36200860  0.83714588  0.13147396     0.08000
F821        F  0.41542835  0.76948559  0.17396094    -0.19400
F822        F  0.42053250  0.79035130  0.21424378    -0.15700
F823        F  0.45002511  0.78146210  0.18558299    -0.19200
F824        F  0.38878362  0.87678981  0.12385711    -0.22500
F825        F  0.41718525  0.86960832  0.09269629    -0.24000
F826        F  0.42353010  0.88955521  0.13345194    -0.18000
F827        F  0.32444628  0.81961854  0.12539753    -0.20500
F828        F  0.31159245  0.81898832  0.08027733    -0.21700
F829        F  0.31946614  0.85241601  0.10192425    -0.18800
F830        F  0.42361701  0.80549825  0.04230120    -0.18900
F831        F  0.42487256  0.79309330  0.08823138    -0.22800
F832        F  0.43537436  0.82877660  0.07773086    -0.24400
C833        C  0.28710988  0.74586604  0.99142083    -0.11200
C834        C  0.26399137  0.74968369  0.49877751     0.11400
C835        C  0.25790554  0.77249271  0.50442656    -0.03000
C836        C  0.27459384  0.78935505  0.50272171    -0.05700
C837        C  0.29732629  0.78541815  0.99887144    -0.16500
C838        C  0.30373468  0.76302073  0.99159809     0.02400
C839        C  0.24737391  0.73069211  0.49923421     0.12400
C840        C  0.23449744  0.78016994  0.51345182     0.63000
H841        H  0.26980195  0.80676842  0.50574466     0.12400
C842        C  0.32771151  0.75755161  0.98263633     0.55100
H843        H  0.29164204  0.72858781  0.98615023     0.08200
C844        C  0.23307752  0.72607351  0.47531986    -0.05600
C845        C  0.21699686  0.70863034  0.47780142    -0.06300
C846        C  0.21543792  0.69491303  0.50272626    -0.15900
C847        C  0.23235484  0.69947392  0.02708544    -0.01500
C848        C  0.24781348  0.71755164  0.02428894    -0.09100
C849        C  0.23521526  0.73917129  0.44705636     0.65200
H850        H  0.20562690  0.70525776  0.45987711     0.10700
C851        C  0.23395097  0.68382134  0.05310205     0.63600
H852        H  0.25979102  0.72109395  0.04148485     0.08000
F853        F  0.32972623  0.73545127  0.97288512    -0.19400
F854        F  0.34215493  0.76044823  0.00589638    -0.15700
F855        F  0.33422339  0.77173347  0.96026456    -0.19200
F856        F  0.23573271  0.79017276  0.54067940    -0.22500
F857        F  0.21891917  0.76280910  0.51493480    -0.24000
F858        F  0.22674747  0.79601796  0.49381134    -0.18000
F859        F  0.23533715  0.66159062  0.04375489    -0.20500
F860        F  0.21526138  0.68637683  0.07066337    -0.21700
F861        F  0.25281854  0.68843484  0.06980586    -0.18800
F862        F  0.22080826  0.73092356  0.42582548    -0.18900
F863        F  0.25699798  0.73750661  0.43659936    -0.22800
F864        F  0.23015837  0.76168705  0.45168110    -0.24400
C865        C  0.17532753  0.62480512  0.11202969    -0.11200
C866        C  0.18983212  0.60612001  0.11132845     0.11400
C867        C  0.20371707  0.60268623  0.08672567    -0.03000
C868        C  0.20213851  0.61783232  0.06326798    -0.05700
C869        C  0.18635174  0.63564932  0.06262366    -0.16500
C870        C  0.17336850  0.63985173  0.08822502     0.02400
C871        C  0.18895517  0.58936260  0.13556550     0.12400
C872        C  0.21932146  0.58237884  0.08460239     0.63000
H873        H  0.21255746  0.61505082  0.04425591     0.12400
C874        C  0.15738824  0.65971324  0.09096540     0.55100
H875        H  0.16512381  0.62717181  0.13134763     0.08200
C876        C  0.20222046  0.59152917  0.16102635    -0.05600
C877        C  0.20196627  0.57380458  0.18151762    -0.06300
C878        C  0.18787960  0.55480148  0.17815441    -0.15900
C879        C  0.17333699  0.55350898  0.15371733    -0.01500
C880        C  0.17449602  0.57066541  0.13252469    -0.09100
C881        C  0.21580176  0.61284318  0.16704245     0.65200
H882        H  0.21237603  0.57485874  0.20081514     0.10700
C883        C  0.15598951  0.53467524  0.15063828     0.63600
H884        H  0.16403094  0.56968893  0.11326779     0.08000
F885        F  0.16955589  0.67963987  0.09212551    -0.19400
F886        F  0.14453347  0.65854709  0.11609389    -0.15700
F887        F  0.14278650  0.66015060  0.06771223    -0.19200
F888        F  0.20677223  0.56263231  0.08464177    -0.22500
F889        F  0.23394186  0.58212451  0.10796107    -0.24000
F890        F  0.23208207  0.58270887  0.05936023    -0.18000
F891        F  0.14235801  0.53775668  0.12656821    -0.20500
F892        F  0.14237271  0.53423724  0.17508010    -0.21700
F893        F  0.16645603  0.51397879  0.14756026    -0.18800
F894        F  0.22799080  0.61122838  0.19261798    -0.18900
F895        F  0.20135377  0.63103803  0.16961720    -0.22800
F896        F  0.23075424  0.61693592  0.14459729    -0.24400
C897        C  0.15722872  0.57031032  0.37164802    -0.11200
C898        C  0.17585484  0.58476464  0.37467327     0.11400
C899        C  0.19351945  0.58394546  0.35396178    -0.03000
C900        C  0.19189037  0.56844362  0.33079176    -0.05700
C901        C  0.17345097  0.55368747  0.32798964    -0.16500
C902        C  0.15550205  0.55490894  0.34835986     0.02400
C903        C  0.17673902  0.60020518  0.40019102     0.12400
C904        C  0.21433169  0.59883178  0.35681627     0.63000
H905        H  0.20552272  0.56700982  0.31520464     0.12400
C906        C  0.13444682  0.54031082  0.34698458     0.55100
H907        H  0.14389953  0.57101498  0.38778578     0.08200
C908        C  0.16572826  0.62129545  0.40038234    -0.05600
C909        C  0.16835145  0.63548800  0.42475566    -0.06300
C910        C  0.18052388  0.62891576  0.44980366    -0.15900
C911        C  0.19338003  0.60848916  0.44793638    -0.01500
C912        C  0.18998447  0.59398019  0.42396238    -0.09100
C913        C  0.15097702  0.62863926  0.37510423     0.65200
H914        H  0.16102993  0.65212804  0.42383583     0.10700
C915        C  0.21158528  0.60120989  0.46922219     0.63600
H916        H  0.19866807  0.57787030  0.42308336     0.08000
F917        F  0.11566337  0.55408884  0.34753470    -0.19400
F918        F  0.13383422  0.52627801  0.37100142    -0.15700
F919        F  0.13322511  0.52707881  0.32216609    -0.19200
F920        F  0.22613314  0.59301356  0.38156775    -0.22500
F921        F  0.20820868  0.62133400  0.35867893    -0.24000
F922        F  0.22863898  0.59642772  0.33319073    -0.18000
F923        F  0.20328674  0.58421682  0.48690486    -0.20500
F924        F  0.21966427  0.61872668  0.48619567    -0.21700
F925        F  0.22987894  0.59276712  0.45398248    -0.18800
F926        F  0.14214815  0.65005549  0.37939436    -0.18900
F927        F  0.13316505  0.61371328  0.37199344    -0.22800
F928        F  0.16334000  0.62891136  0.34959797    -0.24400
C929        C  0.25153876  0.93850195  0.01560606    -0.11200
C930        C  0.25077989  0.92029056  0.49138135     0.11400
C931        C  0.23322177  0.92164373  0.47073347    -0.03000
C932        C  0.21974740  0.94118447  0.47038175    -0.05700
C933        C  0.22200688  0.95954006  0.99122802    -0.16500
C934        C  0.23784601  0.95781193  0.01426243     0.02400
C935        C  0.26586477  0.90038020  0.49319683     0.12400
C936        C  0.22829889  0.90220879  0.44990471     0.63000
H937        H  0.20619105  0.94250015  0.45474291     0.12400
C938        C  0.24084134  0.97632896  0.03699677     0.55100
H939        H  0.26355793  0.93661162  0.03313928     0.08200
C940        C  0.28745799  0.90027906  0.48026815    -0.05600
C941        C  0.30127722  0.88127992  0.48434091    -0.06300
C942        C  0.29339113  0.86389780  0.00707537    -0.15900
C943        C  0.27145399  0.86426763  0.01945499    -0.01500
C944        C  0.25746566  0.88283869  0.01364854    -0.09100
C945        C  0.29617644  0.92049930  0.46322931     0.65200
H946        H  0.31820145  0.88152067  0.47623437     0.10700
C947        C  0.26227046  0.84683030  0.04047354     0.63600
H948        H  0.24052449  0.88316684  0.02250234     0.08000
F949        F  0.25981295  0.97287503  0.05387108    -0.19400
F950        F  0.22242728  0.97678990  0.05542899    -0.15700
F951        F  0.24319688  0.99708661  0.02347630    -0.19200
F952        F  0.22259699  0.88309048  0.46555834    -0.22500
F953        F  0.24702946  0.89756842  0.43307224    -0.24000
F954        F  0.21062246  0.90710365  0.43137632    -0.18000
F955        F  0.25615783  0.85751337  0.06614068    -0.20500
F956        F  0.27761596  0.83030001  0.04740049    -0.21700
F957        F  0.24334754  0.83676732  0.02855813    -0.18800
F958        F  0.31742233  0.91663521  0.45186201    -0.18900
F959        F  0.29743600  0.93923936  0.48126563    -0.22800
F960        F  0.28188934  0.92519942  0.44035087    -0.24400
C961        C  0.29661213  0.10002031  0.00066386    -0.11200
C962        C  0.27691753  0.10790840  0.49647966     0.11400
C963        C  0.27273212  0.13140586  0.49369401    -0.03000
C964        C  0.29105329  0.14663594  0.49494752    -0.05700
C965        C  0.31330635  0.13926717  0.49874276    -0.16500
C966        C  0.31526169  0.11466067  0.00301476     0.02400
C967        C  0.25856927  0.09054060  0.49446949     0.12400
C968        C  0.24910239  0.14034823  0.48868580     0.63000
H969        H  0.28821016  0.16447243  0.49156292     0.12400
C970        C  0.33788184  0.10353752  0.00864643     0.55100
H971        H  0.29889088  0.08208005  0.00452133     0.08200
C972        C  0.25569874  0.07649991  0.46964305    -0.05600
C973        C  0.23830968  0.06015910  0.46965089    -0.06300
C974        C  0.22340282  0.05761160  0.49330242    -0.15900
C975        C  0.22227540  0.07464475  0.01093244    -0.01500
C976        C  0.24032831  0.09016444  0.01153197    -0.09100
C977        C  0.27074376  0.07895935  0.44303981     0.65200
H978        H  0.23637600  0.04903775  0.45103666     0.10700
C979        C  0.20409386  0.07656027  0.03413539     0.63600
H980        H  0.24192577  0.10203003  0.02945025     0.08000
F981        F  0.34241320  0.08840606  0.98635550    -0.19400
F982        F  0.33681958  0.09175819  0.03457693    -0.15700
F983        F  0.35567440  0.11856902  0.01035358    -0.19200
F984        F  0.23587451  0.13623187  0.51286794    -0.22500
F985        F  0.23960263  0.12979891  0.46472695    -0.24000
F986        F  0.24907486  0.16344705  0.48372956    -0.18000
F987        F  0.20549975  0.05856420  0.05317312    -0.20500
F988        F  0.18307253  0.07679109  0.02117435    -0.21700
F989        F  0.20622807  0.09630304  0.05026058    -0.18800
F990        F  0.26400472  0.06487567  0.42049836    -0.18900
F991        F  0.29267950  0.07351499  0.45000759    -0.22800
F992        F  0.27005173  0.10100766  0.43312668    -0.24400
C993        C  0.91393011  0.25458855  0.02275783    -0.11200
C994        C  0.91404437  0.27175536  0.50462450     0.11400
C995        C  0.93375326  0.27527670  0.48785193    -0.03000
C996        C  0.94971204  0.25773908  0.48588230    -0.05700
C997        C  0.94729677  0.23759739  0.50172630    -0.16500
C998        C  0.93062719  0.23766159  0.02288249     0.02400
C999        C  0.89505554  0.28815246  0.50456556     0.12400
C1000       C  0.93806960  0.29767571  0.47271999     0.63000
H1001       H  0.96453359  0.25983324  0.47239657     0.12400
C1002       C  0.92771988  0.21727473  0.04260358     0.55100
H1003       H  0.89890262  0.25273294  0.03592926     0.08200
C1004       C  0.87668257  0.28559903  0.48518484    -0.05600
C1005       C  0.85988334  0.30230237  0.48490232    -0.06300
C1006       C  0.86060471  0.32100270  0.50378036    -0.15900
C1007       C  0.87921884  0.32466426  0.02512610    -0.01500
C1008       C  0.89683527  0.30866378  0.02487336    -0.09100
C1009       C  0.87485441  0.26529013  0.46491593     0.65200
H1010       H  0.84604346  0.30103862  0.46964899     0.10700
C1011       C  0.87986753  0.34458080  0.04601149     0.63600
H1012       H  0.91077585  0.31035618  0.03990146     0.08000
F1013       F  0.90712185  0.21743407  0.05677414    -0.19400
F1014       F  0.94438540  0.21734648  0.06357505    -0.15700
F1015       F  0.92902361  0.19751617  0.02653818    -0.19200
F1016       F  0.93907995  0.31483055  0.49324884    -0.22500
F1017       F  0.92094732  0.30224146  0.45329309    -0.24000
F1018       F  0.95822317  0.29761083  0.45754024    -0.18000
F1019       F  0.89936948  0.34482748  0.06247629    -0.20500
F1020       F  0.86169078  0.34337337  0.06477030    -0.21700
F1021       F  0.87887826  0.36462781  0.03062616    -0.18800
F1022       F  0.85598462  0.26644596  0.44732836    -0.18900
F1023       F  0.87335538  0.24567572  0.48110947    -0.22800
F1024       F  0.89359237  0.26411934  0.44709882    -0.24400
C1025       C  0.06798198  0.27252803  0.00488065    -0.11200
C1026       C  0.08451387  0.26414513  0.48966575     0.11400
C1027       C  0.08517908  0.24221200  0.47701805    -0.03000
C1028       C  0.06566036  0.22858248  0.47801125    -0.05700
C1029       C  0.04577709  0.23604151  0.49147035    -0.16500
C1030       C  0.04867216  0.25870442  0.00747157     0.02400
C1031       C  0.10514872  0.27848816  0.49245593     0.12400
C1032       C  0.10647041  0.23314376  0.46280221     0.63000
H1033       H  0.06589770  0.21167360  0.46881147     0.12400
C1034       C  0.02929594  0.26609915  0.02679914     0.55100
H1035       H  0.06908119  0.28829692  0.01690724     0.08200
C1036       C  0.11010526  0.29681686  0.47364147    -0.05600
C1037       C  0.13027746  0.30918596  0.47791091    -0.06300
C1038       C  0.14828023  0.30404134  0.99914273    -0.15900
C1039       C  0.14274236  0.28561323  0.01769341    -0.01500
C1040       C  0.12240034  0.27398354  0.01329462    -0.09100
C1041       C  0.09387273  0.30362416  0.44977094     0.65200
H1042       H  0.13422994  0.32348432  0.46410910     0.10700
C1043       C  0.15747010  0.27724688  0.04236571     0.63600
H1044       H  0.11792264  0.26014590  0.02766222     0.08000
F1045       F  0.03242373  0.28783143  0.03745218    -0.19400
F1046       F  0.02748547  0.25164131  0.05028038    -0.15700
F1047       F  0.00939914  0.26567773  0.01118780    -0.19200
F1048       F  0.12352665  0.23167908  0.48312540    -0.22500
F1049       F  0.11324227  0.24739878  0.44066536    -0.24000
F1050       F  0.10319239  0.21179681  0.45097256    -0.18000
F1051       F  0.14791153  0.28349575  0.06864069    -0.20500
F1052       F  0.17917108  0.28548883  0.04109651    -0.21700
F1053       F  0.15884219  0.25387549  0.04123658    -0.18800
F1054       F  0.10185363  0.32189261  0.43399784    -0.18900
F1055       F  0.07342067  0.30964110  0.46187419    -0.22800
F1056       F  0.09056606  0.28577220  0.43072427    -0.24400
C1057       C  0.08837731  0.06970138  0.98758736    -0.11200
C1058       C  0.09460468  0.08994013  0.48140958     0.11400
C1059       C  0.11652663  0.09356328  0.47011929    -0.03000
C1060       C  0.13226006  0.07581910  0.47149584    -0.05700
C1061       C  0.12703498  0.05517019  0.48493345    -0.16500
C1062       C  0.10372961  0.05169215  0.98959110     0.02400
C1063       C  0.07731690  0.10810056  0.48192481     0.12400
C1064       C  0.12349513  0.11630415  0.45763428     0.63000
H1065       H  0.14911309  0.07819671  0.46296412     0.12400
C1066       C  0.09609813  0.02908255  0.00170941     0.55100
H1067       H  0.07125981  0.06761383  0.99531947     0.08200
C1068       C  0.05962152  0.10919874  0.46136674    -0.05600
C1069       C  0.04348247  0.12654306  0.46414883    -0.06300
C1070       C  0.04436578  0.14248534  0.48696714    -0.15900
C1071       C  0.06322296  0.14118008  0.00687318    -0.01500
C1072       C  0.07896014  0.12375838  0.00250175    -0.09100
C1073       C  0.05775736  0.09202101  0.43678443     0.65200
H1074       H  0.02971140  0.12748491  0.44878678     0.10700
C1075       C  0.06570317  0.15623010  0.03362326     0.63600
H1076       H  0.09200672  0.12077245  0.01847336     0.08000
F1077       F  0.07321869  0.02875675  0.00752170    -0.19400
F1078       F  0.10737743  0.02463700  0.02734534    -0.15700
F1079       F  0.10062149  0.01213713  0.98174909    -0.19200
F1080       F  0.12319619  0.13254051  0.47937446    -0.22500
F1081       F  0.10885434  0.12263488  0.43581148    -0.24000
F1082       F  0.14499938  0.11569068  0.44599277    -0.18000
F1083       F  0.04823729  0.15209284  0.05283932    -0.20500
F1084       F  0.06563848  0.17875346  0.02550612    -0.21700
F1085       F  0.08566876  0.15225059  0.04824239    -0.18800
F1086       F  0.03950577  0.09631057  0.41895207    -0.18900
F1087       F  0.05517046  0.07052722  0.44808642    -0.22800
F1088       F  0.07699255  0.09260738  0.41983881    -0.24400
C1089       C  0.71988095  0.88469451  0.48760910    -0.11200
C1090       C  0.72301785  0.90446948  0.00386020     0.11400
C1091       C  0.70621746  0.90542497  0.02566004    -0.03000
C1092       C  0.68904720  0.88894953  0.02559167    -0.05700
C1093       C  0.68565021  0.86854551  0.50864452    -0.16500
C1094       C  0.70294657  0.86793149  0.48708189     0.02400
C1095       C  0.74128765  0.92166595  0.00197758     0.12400
C1096       C  0.70608103  0.92419875  0.04837015     0.63000
H1097       H  0.67579969  0.89010267  0.04139833     0.12400
C1098       C  0.70344271  0.85024639  0.46292678     0.55100
H1099       H  0.73328709  0.88451216  0.47160543     0.08200
C1100       C  0.76303072  0.91779235  0.01346662    -0.05600
C1101       C  0.77909946  0.93533775  0.01212854    -0.06300
C1102       C  0.77128558  0.95368997  0.50123872    -0.15900
C1103       C  0.74981060  0.95712630  0.48863099    -0.01500
C1104       C  0.73345765  0.93989682  0.49102933    -0.09100
C1105       C  0.76935201  0.89503426  0.02628566     0.65200
H1106       H  0.79575761  0.93287487  0.02112011     0.10700
C1107       C  0.74389774  0.97924915  0.47384742     0.63600
H1108       H  0.71703901  0.94198880  0.48118998     0.08000
F1109       F  0.72236761  0.85235554  0.44550472    -0.19400
F1110       F  0.68484243  0.85243307  0.44519454    -0.15700
F1111       F  0.70368468  0.82888096  0.47466456    -0.19200
F1112       F  0.70322769  0.94487193  0.03491697    -0.22500
F1113       F  0.72621020  0.92441489  0.06343009    -0.24000
F1114       F  0.68881664  0.92147209  0.06834759    -0.18000
F1115       F  0.75676051  0.98191410  0.44899704    -0.20500
F1116       F  0.74799257  0.99713175  0.49266134    -0.21700
F1117       F  0.72143300  0.97998283  0.46590270    -0.18800
F1118       F  0.79092877  0.89523282  0.03765386    -0.18900
F1119       F  0.76842721  0.87861543  0.00478626    -0.22800
F1120       F  0.75460765  0.88928368  0.04837789    -0.24400
C1121       C  0.75266086  0.08075127  0.01492019    -0.11200
C1122       C  0.74890145  0.09025897  0.48822102     0.11400
C1123       C  0.76191560  0.08253481  0.46448736    -0.03000
C1124       C  0.77564004  0.06343893  0.46835438    -0.05700
C1125       C  0.77720544  0.05209263  0.49527447    -0.16500
C1126       C  0.76650533  0.06165152  0.01854775     0.02400
C1127       C  0.73367984  0.11007073  0.48601396     0.12400
C1128       C  0.76164878  0.09470463  0.43539920     0.63000
H1129       H  0.78569308  0.05753283  0.45021122     0.12400
C1130       C  0.76531747  0.04880620  0.04712000     0.55100
H1131       H  0.74167056  0.08625534  0.03238273     0.08200
C1132       C  0.71017723  0.10741123  0.48243925    -0.05600
C1133       C  0.69647549  0.12672472  0.48375814    -0.06300
C1134       C  0.70631959  0.14936576  0.98802334    -0.15900
C1135       C  0.72957055  0.15280875  0.99372301    -0.01500
C1136       C  0.74422059  0.13411886  0.99268501    -0.09100
C1137       C  0.69950662  0.08417787  0.47850096     0.65200
H1138       H  0.67835953  0.12484058  0.48254193     0.10700
C1139       C  0.73867218  0.17570446  0.00287032     0.63600
H1140       H  0.76192749  0.13625383  0.99762274     0.08000
F1141       F  0.74874220  0.05721585  0.06539090    -0.19400
F1142       F  0.78562697  0.05062322  0.06163498    -0.15700
F1143       F  0.76042233  0.02626959  0.04181496    -0.19200
F1144       F  0.76970962  0.11650901  0.43894420    -0.22500
F1145       F  0.73996440  0.09560707  0.42462915    -0.24000
F1146       F  0.77496781  0.08394022  0.41485692    -0.18000
F1147       F  0.76141747  0.17499353  0.00934395    -0.20500
F1148       F  0.72742915  0.18296445  0.02752161    -0.21700
F1149       F  0.73575049  0.19100620  0.98058187    -0.18800
F1150       F  0.67655475  0.08558142  0.47363965    -0.18900
F1151       F  0.70282358  0.07136858  0.50321755    -0.22800
F1152       F  0.70905031  0.07317101  0.45495960    -0.24400
C1153       C  0.91473719  0.12040510  0.47647861    -0.11200
C1154       C  0.92075782  0.10499847  0.99790304     0.11400
C1155       C  0.94094326  0.10458969  0.01419212    -0.03000
C1156       C  0.95525806  0.12363284  0.01334607    -0.05700
C1157       C  0.94848575  0.14001544  0.49354164    -0.16500
C1158       C  0.92944231  0.13915628  0.47477245     0.02400
C1159       C  0.90437608  0.08594130  0.99817675     0.12400
C1160       C  0.94763143  0.08384656  0.03156619     0.63000
H1161       H  0.97066046  0.12372914  0.02593961     0.12400
C1162       C  0.92429657  0.15788577  0.45322039     0.55100
H1163       H  0.90011080  0.11939008  0.46247281     0.08200
C1164       C  0.88516596  0.08611153  0.01642119    -0.05600
C1165       C  0.87012154  0.06771491  0.01505768    -0.06300
C1166       C  0.87029714  0.04755262  0.49566505    -0.15900
C1167       C  0.89047813  0.04594183  0.47926197    -0.01500
C1168       C  0.90590214  0.06416534  0.48007428    -0.09100
C1169       C  0.88026511  0.10592421  0.03663873     0.65200
H1170       H  0.85535401  0.06754511  0.02892098     0.10700
C1171       C  0.89596325  0.02489213  0.46161068     0.63600
H1172       H  0.92130978  0.06342540  0.46747358     0.08000
F1173       F  0.90326404  0.15517983  0.44067405    -0.19400
F1174       F  0.94011516  0.15777137  0.43112180    -0.15700
F1175       F  0.92461316  0.17867733  0.46709249    -0.19200
F1176       F  0.95006701  0.06553539  0.01300853    -0.22500
F1177       F  0.93130374  0.07884896  0.05202821    -0.24000
F1178       F  0.96784140  0.08704369  0.04601706    -0.18000
F1179       F  0.88124484  0.02296722  0.43844409    -0.20500
F1180       F  0.89410225  0.00590090  0.47899159    -0.21700
F1181       F  0.91765024  0.02559281  0.45056045    -0.18800
F1182       F  0.86098616  0.10237193  0.05300491    -0.18900
F1183       F  0.87720918  0.12534534  0.02046768    -0.22800
F1184       F  0.89799850  0.10924954  0.05562653    -0.24400
C1185       C  0.87070400  0.74369154  0.00576258    -0.11200
C1186       C  0.89008555  0.73430735  0.49226759     0.11400
C1187       C  0.88655866  0.71457565  0.47526350    -0.03000
C1188       C  0.86573999  0.70314124  0.47751523    -0.05700
C1189       C  0.84774093  0.71078360  0.99413897    -0.16500
C1190       C  0.85029383  0.73191439  0.00865308     0.02400
C1191       C  0.91128401  0.74763899  0.49120221     0.12400
C1192       C  0.90503188  0.70524081  0.45580850     0.63000
H1193       H  0.86296509  0.68751789  0.46560597     0.12400
C1194       C  0.83260420  0.74270307  0.02812541     0.55100
H1195       H  0.87294177  0.75967562  0.01712315     0.08200
C1196       C  0.91301565  0.76758308  0.47442383    -0.05600
C1197       C  0.93314194  0.78010589  0.47547527    -0.06300
C1198       C  0.94988644  0.77397772  0.99533032    -0.15900
C1199       C  0.94585362  0.75566702  0.01453893    -0.01500
C1200       C  0.92588596  0.74297044  0.01123533    -0.09100
C1201       C  0.89336405  0.77606284  0.45638796     0.65200
H1202       H  0.93472507  0.79551135  0.46291725     0.10700
C1203       C  0.96265241  0.74915770  0.03790128     0.63600
H1204       H  0.92222179  0.72911819  0.02588914     0.08000
F1205       F  0.82855102  0.76455002  0.01879855    -0.19400
F1206       F  0.84058702  0.74355894  0.05638011    -0.15700
F1207       F  0.81233734  0.73128336  0.02814114    -0.19200
F1208       F  0.92354904  0.69967198  0.47248202    -0.22500
F1209       F  0.91134337  0.72124840  0.43549829    -0.24000
F1210       F  0.89811335  0.68598519  0.44101589    -0.18000
F1211       F  0.96402290  0.76606876  0.05870940    -0.20500
F1212       F  0.98361020  0.74586296  0.02544991    -0.21700
F1213       F  0.95648369  0.72935334  0.05185860    -0.18800
F1214       F  0.89919845  0.79480713  0.44001216    -0.18900
F1215       F  0.87581503  0.78211878  0.47458554    -0.22800
F1216       F  0.88604814  0.75933299  0.43750666    -0.24400
C1217       C  0.07483465  0.74426469  0.03213146    -0.11200
C1218       C  0.08577549  0.73863281  0.50073978     0.11400
C1219       C  0.07821579  0.74702850  0.47371315    -0.03000
C1220       C  0.06090861  0.76329575  0.47353709    -0.05700
C1221       C  0.05002253  0.77038300  0.49931307    -0.16500
C1222       C  0.05662875  0.75951219  0.03200672     0.02400
C1223       C  0.10460535  0.72225206  0.50315284     0.12400
C1224       C  0.08779011  0.73812660  0.44521248     0.63000
H1225       H  0.05560236  0.77039185  0.45299365     0.12400
C1226       C  0.04554023  0.76524375  0.06100326     0.55100
H1227       H  0.08132263  0.73781933  0.05248915     0.08200
C1228       C  0.12708636  0.72918423  0.50846273    -0.05600
C1229       C  0.14404140  0.71255305  0.50995652    -0.06300
C1230       C  0.13896214  0.68939298  0.50732097    -0.15900
C1231       C  0.11715821  0.68166361  0.01075869    -0.01500
C1232       C  0.09991313  0.69778514  0.00867530    -0.09100
C1233       C  0.13299984  0.75401378  0.51259004     0.65200
H1234       H  0.16151536  0.71757770  0.51215444     0.10700
C1235       C  0.10984329  0.65698855  0.01173497     0.63600
H1236       H  0.08255524  0.69216110  0.00703137     0.08000
F1237       F  0.05408298  0.75245362  0.08361305    -0.19400
F1238       F  0.02267732  0.76082077  0.05953527    -0.15700
F1239       F  0.04918035  0.78777462  0.06783292    -0.19200
F1240       F  0.08307862  0.71526717  0.44272588    -0.22500
F1241       F  0.11084532  0.74122699  0.44435942    -0.24000
F1242       F  0.07858646  0.74895268  0.42137607    -0.18000
F1243       F  0.09320159  0.65439283  0.03258679    -0.20500
F1244       F  0.12703753  0.64232541  0.01874543    -0.21700
F1245       F  0.10116676  0.65081533  0.98492839    -0.18800
F1246       F  0.15579970  0.75715970  0.51742024    -0.18900
F1247       F  0.12145881  0.76257046  0.53634157    -0.22800
F1248       F  0.12711109  0.76617952  0.48814730    -0.24400
C1249       C  0.88112419  0.91296073  0.48213292    -0.11200
C1250       C  0.90258144  0.91724027  0.99788957     0.11400
C1251       C  0.90503767  0.93683207  0.01549048    -0.03000
C1252       C  0.88813998  0.95346732  0.01463851    -0.05700
C1253       C  0.86684358  0.94948885  0.49818393    -0.16500
C1254       C  0.86408921  0.92942617  0.48140971     0.02400
C1255       C  0.91996178  0.89921169  0.99690180     0.12400
C1256       C  0.92546561  0.94019946  0.03493645     0.63000
H1257       H  0.88974568  0.96862225  0.02782593     0.12400
C1258       C  0.84330522  0.92524343  0.46288647     0.55100
H1259       H  0.87953955  0.89762639  0.46928282     0.08200
C1260       C  0.91762934  0.87878681  0.01262770    -0.05600
C1261       C  0.93504288  0.86273780  0.01098233    -0.06300
C1262       C  0.95432815  0.86632655  0.99381359    -0.15900
C1263       C  0.95282520  0.88515726  0.47237278    -0.01500
C1264       C  0.93543929  0.90112470  0.47571379    -0.09100
C1265       C  0.89681784  0.87393508  0.03089865     0.65200
H1266       H  0.93368607  0.84706968  0.02303224     0.10700
C1267       C  0.97100587  0.88905483  0.44967156     0.63600
H1268       H  0.93493537  0.91597163  0.46198257     0.08000
F1269       F  0.84255101  0.90330183  0.45222092    -0.19400
F1270       F  0.84338545  0.93976525  0.43936731    -0.15700
F1271       F  0.82407080  0.92873855  0.47927544    -0.19200
F1272       F  0.94483308  0.94079719  0.01824838    -0.22500
F1273       F  0.92696605  0.92262396  0.05458360    -0.24000
F1274       F  0.92431174  0.96026088  0.05053554    -0.18000
F1275       F  0.96980435  0.87235140  0.42856330    -0.20500
F1276       F  0.99199887  0.88864554  0.46265239    -0.21700
F1277       F  0.96862021  0.90975588  0.43601968    -0.18800
F1278       F  0.89852626  0.85360526  0.04560204    -0.18900
F1279       F  0.87806730  0.87277002  0.01316639    -0.22800
F1280       F  0.89374728  0.89090905  0.05129296    -0.24400
C1281       C  0.11942599  0.91810876  0.00051700    -0.11200
C1282       C  0.09786597  0.92224665  0.48316238     0.11400
C1283       C  0.09377842  0.94276398  0.46827019    -0.03000
C1284       C  0.11057627  0.95968926  0.46855753    -0.05700
C1285       C  0.13043677  0.95587013  0.98482248    -0.16500
C1286       C  0.13531265  0.93580226  0.00051069     0.02400
C1287       C  0.08096432  0.90371971  0.48463769     0.12400
C1288       C  0.07146413  0.94702136  0.45315419     0.63000
H1289       H  0.10795603  0.97539857  0.45701749     0.12400
C1290       C  0.15738528  0.93275164  0.01663577     0.55100
H1291       H  0.12273437  0.90266914  0.01237815     0.08200
C1292       C  0.08153902  0.88487384  0.46559378    -0.05600
C1293       C  0.06518790  0.86776264  0.46891183    -0.06300
C1294       C  0.04900918  0.86846478  0.49134445    -0.15900
C1295       C  0.05178443  0.88427494  0.01779352    -0.01500
C1296       C  0.06759704  0.90168302  0.01284447    -0.09100
C1297       C  0.09987352  0.88244470  0.44267950     0.65200
H1298       H  0.06530703  0.85329848  0.45436157     0.10700
C1299       C  0.03656439  0.88574423  0.04433766     0.63600
H1300       H  0.06868179  0.91596451  0.02763713     0.08000
F1301       F  0.15944760  0.91119873  0.02803038    -0.19400
F1302       F  0.15882455  0.94798990  0.03946200    -0.15700
F1303       F  0.17511642  0.93619819  0.99770845    -0.19200
F1304       F  0.05418279  0.94632153  0.47332887    -0.22500
F1305       F  0.06760125  0.93070214  0.43211296    -0.24000
F1306       F  0.07102609  0.96798237  0.43981994    -0.18000
F1307       F  0.04098006  0.86786243  0.06277866    -0.20500
F1308       F  0.01423409  0.88510724  0.03589287    -0.21700
F1309       F  0.03997376  0.90557239  0.05991666    -0.18800
F1310       F  0.09637844  0.86371292  0.42503335    -0.18900
F1311       F  0.12049673  0.88005618  0.45621362    -0.22800
F1312       F  0.10058057  0.90132920  0.42506597    -0.24400
O1313       O  0.02414578  0.84303819  0.51696447    -0.73700
O1314       O  0.97846935  0.79681680  0.51828258    -0.73700
O1315       O  0.02417123  0.79726425  0.52003970    -0.73800
O1316       O  0.97858731  0.84235847  0.51595711    -0.73900
O1317       O  0.98080057  0.84084557  0.97141153    -0.73800
O1318       O  0.02503227  0.79333110  0.97691011    -0.73800
O1319       O  0.97925231  0.79518338  0.97308998    -0.73700
O1320       O  0.02636621  0.83929725  0.97429144    -0.73800
Ni1321     Ni  0.00137849  0.81990003  0.51949607     1.25400
Ni1322     Ni  0.00299234  0.81706269  0.97220541     1.25400
C1323       C  0.03285100  0.84802972  0.99842673     0.88500
C1324       C  0.97091569  0.78905336  0.49408763     0.88400
C1325       C  0.03145512  0.78658568  0.00214770     0.88400
C1326       C  0.97151229  0.84918055  0.49122893     0.88600
O1327       O  0.79978375  0.02459376  0.52117975    -0.73700
O1328       O  0.84362552  0.97681081  0.52234766    -0.73700
O1329       O  0.84519328  0.02283861  0.52077830    -0.73800
O1330       O  0.79795646  0.97849413  0.52346840    -0.73900
O1331       O  0.79978999  0.98033990  0.97303513    -0.73800
O1332       O  0.84826095  0.02352467  0.97135471    -0.73800
O1333       O  0.84528052  0.97757943  0.97218200    -0.73700
O1334       O  0.80287470  0.02621160  0.97193997    -0.73800
Ni1335     Ni  0.82164341  0.00068948  0.52367675     1.25400
Ni1336     Ni  0.82403502  0.00185494  0.97041432     1.25400
C1337       C  0.79606792  0.03486106  0.99601450     0.88500
C1338       C  0.85267676  0.96998113  0.99638271     0.88400
C1339       C  0.85596724  0.03147368  0.99536244     0.88400
C1340       C  0.79234342  0.97333210  0.99759981     0.88600
O1341       O  0.97405625  0.16552287  0.51756990    -0.73700
O1342       O  0.01956085  0.21224620  0.51694954    -0.73700
O1343       O  0.97378558  0.21142561  0.52129474    -0.73800
O1344       O  0.01955967  0.16648045  0.51403451    -0.73900
O1345       O  0.01854126  0.17001530  0.96621963    -0.73800
O1346       O  0.97349236  0.21636536  0.97520423    -0.73800
O1347       O  0.01925147  0.21568027  0.96958287    -0.73700
O1348       O  0.97297573  0.17036039  0.97113375    -0.73800
Ni1349     Ni  0.99678644  0.18889309  0.51914951     1.25400
Ni1350     Ni  0.99588244  0.19323487  0.96883225     1.25400
C1351       C  0.96729102  0.16120807  0.99525944     0.88500
C1352       C  0.02849609  0.22212311  0.99338129     0.88400
C1353       C  0.96719123  0.22238592  0.00085099     0.88400
C1354       C  0.02789734  0.16178310  0.98900857     0.88600
O1355       O  0.19796454  0.98547653  0.51383266    -0.73700
O1356       O  0.15124985  0.03011697  0.51096047    -0.73700
O1357       O  0.15270477  0.98422663  0.51051158    -0.73800
O1358       O  0.19694448  0.03139059  0.51461242    -0.73900
O1359       O  0.19810090  0.03117191  0.96239955    -0.73800
O1360       O  0.15363202  0.98335082  0.96059385    -0.73800
O1361       O  0.15248422  0.02962164  0.95861546    -0.73700
O1362       O  0.19907546  0.98503403  0.96401854    -0.73800
Ni1363     Ni  0.17463775  0.00785715  0.51416020     1.25400
Ni1364     Ni  0.17588425  0.00728962  0.95963680     1.25400
C1365       C  0.20632753  0.97775370  0.49009635     0.88500
C1366       C  0.14346578  0.03734915  0.98195303     0.88400
C1367       C  0.14664457  0.97631740  0.48576651     0.88400
C1368       C  0.20393765  0.03980769  0.98698420     0.88600
C1369       C  0.18081484  0.64521216  0.97957494     0.87200
C1370       C  0.15957516  0.65989619  0.98258099    -0.53000
C1371       C  0.15926441  0.67369020  0.00643689     0.10100
C1372       C  0.17913225  0.67150948  0.52239757     0.21100
C1373       C  0.20026334  0.66211524  0.98042287    -0.53800
C1374       C  0.20042594  0.67624774  0.00393426     0.10200
C1375       C  0.18135687  0.63273366  0.00883490    -0.53300
C1376       C  0.18003261  0.64598557  0.53056889     0.10800
H1377       H  0.14536738  0.65919149  0.96782139     0.15300
H1378       H  0.17886498  0.68351094  0.54078839     0.01100
H1379       H  0.21256209  0.66339589  0.96295303     0.15600
H1380       H  0.18109915  0.61443672  0.01026414     0.15400
C1381       C  0.34218812  0.82514424  0.52945807     0.87200
C1382       C  0.32566814  0.84490555  0.52792305    -0.53000
C1383       C  0.31118410  0.84415374  0.50501235     0.10100
C1384       C  0.31431084  0.82642072  0.98722271     0.21100
C1385       C  0.32801990  0.80342862  0.52635018    -0.53800
C1386       C  0.31416714  0.80278098  0.50268840     0.10200
C1387       C  0.35457679  0.82708707  0.49983076    -0.53300
C1388       C  0.33940079  0.82977041  0.97861884     0.10800
H1389       H  0.32635386  0.85938003  0.54239860     0.15300
H1390       H  0.30232662  0.82610912  0.96879966     0.01100
H1391       H  0.32860094  0.78976074  0.54204885     0.15600
H1392       H  0.37258680  0.82914527  0.49732751     0.15400
N1393       N  0.48916035  0.83274651  0.71231337    -0.35900
N1394       N  0.45272288  0.83190870  0.75503288    -0.56500
N1395       N  0.48544744  0.83267205  0.80078574    -0.35900
N1396       N  0.52206615  0.83236754  0.75821524    -0.56500
C1397       C  0.47149506  0.82618804  0.69571201     0.27700
C1398       C  0.50814456  0.82774137  0.69731173     0.27700
C1399       C  0.46642579  0.82808557  0.81602055     0.27700
C1400       C  0.50314183  0.82753000  0.81798691     0.27700
C1401       C  0.44092719  0.83571723  0.73050598     0.36300
C1402       C  0.43894159  0.83713280  0.77745164     0.36300
C1403       C  0.53585281  0.83725433  0.73558253     0.36300
C1404       C  0.53406061  0.83607720  0.78276272     0.36300
C1405       C  0.47932930  0.81695277  0.66981521    -0.21200
C1406       C  0.50248689  0.81771601  0.67094954    -0.21200
C1407       C  0.47208381  0.81976859  0.84318085    -0.21200
C1408       C  0.49522445  0.81961408  0.84454758    -0.21200
C1409       C  0.41949228  0.84332335  0.73728071    -0.22200
C1410       C  0.41829432  0.84440915  0.76711096    -0.22200
C1411       C  0.55677122  0.84399864  0.74579628    -0.22200
C1412       C  0.55571031  0.84304806  0.77567601    -0.22200
C1413       C  0.44858686  0.83015997  0.70236535    -0.17600
C1414       C  0.53026304  0.83366568  0.70595106    -0.17600
C1415       C  0.52601355  0.83221953  0.81140159    -0.17600
C1416       C  0.44425735  0.83337797  0.80696701    -0.17600
H1417       H  0.46939037  0.81065663  0.65176842     0.15300
H1418       H  0.51385431  0.81215956  0.65394425     0.15300
H1419       H  0.46073594  0.81499403  0.86057811     0.15300
H1420       H  0.50497031  0.81475569  0.86335941     0.15300
H1421       H  0.40601424  0.84727168  0.72232711     0.13600
H1422       H  0.40373043  0.84946228  0.77970694     0.13600
H1423       H  0.57139684  0.84868885  0.73307262     0.13600
H1424       H  0.56938567  0.84691643  0.79043570     0.13600
H1425       H  0.48825175  0.84268515  0.73102400     0.26900
H1426       H  0.48635930  0.84179984  0.78152589     0.26900
C1427       C  0.63490160  0.83952383  0.98096832     0.87200
C1428       C  0.65156394  0.85917359  0.98320731    -0.53000
C1429       C  0.66765107  0.85670214  0.00403106     0.10100
C1430       C  0.66183011  0.83144954  0.52647916     0.21100
C1431       C  0.64996976  0.81829072  0.97853457    -0.53800
C1432       C  0.66495295  0.81533681  0.00094254     0.10200
C1433       C  0.62447476  0.83699805  0.01125943    -0.53300
C1434       C  0.63663273  0.83173257  0.53578375     0.10800
H1435       H  0.65154477  0.87326351  0.96808610     0.15300
H1436       H  0.67353850  0.82980515  0.54503632     0.01100
H1437       H  0.64901880  0.80683927  0.96017619     0.15600
H1438       H  0.60665080  0.83486702  0.01500344     0.15400
C1439       C  0.81154137  0.66653866  0.53344462     0.87200
C1440       C  0.83166666  0.68212616  0.52858440    -0.53000
C1441       C  0.83053430  0.69447133  0.50368755     0.10100
C1442       C  0.80868448  0.68966205  0.98117680     0.21100
C1443       C  0.79075516  0.68176038  0.53068427    -0.53800
C1444       C  0.78897142  0.69407732  0.50526409     0.10200
C1445       C  0.81172231  0.65191618  0.50559804    -0.53300
C1446       C  0.80900070  0.66380731  0.97680439     0.10800
H1447       H  0.84588171  0.68325278  0.54332845     0.15300
H1448       H  0.80972494  0.69813829  0.96015559     0.01100
H1449       H  0.77900220  0.68305715  0.54867701     0.15600
H1450       H  0.81452611  0.63381699  0.50538021     0.15400
C1451       C  0.36049970  0.17473773  0.97127770     0.87200
C1452       C  0.34459497  0.15445386  0.97351355    -0.53000
C1453       C  0.33077046  0.15486066  0.99722006     0.10100
C1454       C  0.33457623  0.17751634  0.51638646     0.21100
C1455       C  0.34548893  0.19558491  0.97380926    -0.53800
C1456       C  0.33233939  0.19658934  0.99814727     0.10200
C1457       C  0.37338887  0.17366367  0.00041529    -0.53300
C1458       C  0.35998616  0.17758935  0.52428618     0.10800
H1459       H  0.34388287  0.14092762  0.95756581     0.15300
H1460       H  0.32316684  0.17760462  0.53528439     0.01100
H1461       H  0.34497565  0.20828167  0.95685771     0.15600
H1462       H  0.39151131  0.17171918  0.00170337     0.15400
C1463       C  0.18772597  0.34676199  0.53263700     0.87200
C1464       C  0.16582194  0.33296781  0.53006262    -0.53000
C1465       C  0.16469489  0.31947551  0.50583322     0.10100
C1466       C  0.18862803  0.32148834  0.98427464     0.21100
C1467       C  0.20657428  0.32937007  0.52937423    -0.53800
C1468       C  0.20603558  0.31603883  0.50463793     0.10200
C1469       C  0.18805925  0.36021038  0.50402301    -0.53300
C1470       C  0.19051938  0.34714276  0.97834687     0.10800
H1471       H  0.15217620  0.33381960  0.54566163     0.15300
H1472       H  0.18679243  0.31166176  0.96403949     0.01100
H1473       H  0.21894274  0.32755042  0.54653555     0.15600
H1474       H  0.18777841  0.37855254  0.50290492     0.15400
N1475       N  0.18830389  0.49823629  0.71086460    -0.35900
N1476       N  0.18825398  0.46211575  0.75501145    -0.56500
N1477       N  0.17959295  0.49560223  0.79928042    -0.35900
N1478       N  0.18165122  0.53188359  0.75499347    -0.56500
C1479       C  0.19638537  0.48058021  0.69528706     0.27700
C1480       C  0.19233917  0.51730518  0.69531230     0.27700
C1481       C  0.18358856  0.47733219  0.81633461     0.27700
C1482       C  0.18115152  0.51427728  0.81634985     0.27700
C1483       C  0.18813273  0.44941791  0.73046611     0.36300
C1484       C  0.18391663  0.44786324  0.77736708     0.36300
C1485       C  0.17815968  0.54509925  0.73140350     0.36300
C1486       C  0.17468547  0.54387778  0.77839689     0.36300
C1487       C  0.20572096  0.48848815  0.66953732    -0.21200
C1488       C  0.20330688  0.51166375  0.66965137    -0.21200
C1489       C  0.18707846  0.48459423  0.84476143    -0.21200
C1490       C  0.18583728  0.50781292  0.84467880    -0.21200
C1491       C  0.18382415  0.42697730  0.73725844    -0.22200
C1492       C  0.18161256  0.42592309  0.76696265    -0.22200
C1493       C  0.16890345  0.56558091  0.73993131    -0.22200
C1494       C  0.16690803  0.56488639  0.76972032    -0.22200
C1495       C  0.19352765  0.45741151  0.70228119    -0.17600
C1496       C  0.18451054  0.53930845  0.70256224    -0.17600
C1497       C  0.17676536  0.53687393  0.80767730    -0.17600
C1498       C  0.18315539  0.45428380  0.80715030    -0.17600
H1499       H  0.21310417  0.47852410  0.65217784     0.15300
H1500       H  0.20847930  0.52300009  0.65242536     0.15300
H1501       H  0.18999961  0.47438983  0.86385318     0.15300
H1502       H  0.18765775  0.51865761  0.86357942     0.15300
H1503       H  0.18309241  0.41270143  0.72244573     0.13600
H1504       H  0.17880905  0.41065607  0.77935167     0.13600
H1505       H  0.16429234  0.57966989  0.72623019     0.13600
H1506       H  0.16049958  0.57833001  0.78346442     0.13600
H1507       H  0.17782221  0.49688088  0.72889170     0.26900
H1508       H  0.17378259  0.49531383  0.77799409     0.26900
N1509       N  0.51073916  0.18259003  0.79155495    -0.35900
N1510       N  0.54411689  0.18307461  0.74558130    -0.56500
N1511       N  0.50786751  0.17857890  0.70257481    -0.35900
N1512       N  0.47449704  0.17991408  0.74836588    -0.56500
C1513       C  0.52924630  0.18905500  0.80675846     0.27700
C1514       C  0.49250480  0.18717989  0.80827079     0.27700
C1515       C  0.52564966  0.18293389  0.68494919     0.27700
C1516       C  0.48884635  0.18182368  0.68678521     0.27700
C1517       C  0.55812344  0.18135261  0.76874070     0.36300
C1518       C  0.55668260  0.17907870  0.72150565     0.36300
C1519       C  0.46254446  0.17610259  0.77290602     0.36300
C1520       C  0.46088761  0.17433264  0.72584510     0.36300
C1521       C  0.52264379  0.19794916  0.83342100    -0.21200
C1522       C  0.49949681  0.19654837  0.83449182    -0.21200
C1523       C  0.51773786  0.18872061  0.65751786    -0.21200
C1524       C  0.49462254  0.18835167  0.65883575    -0.21200
C1525       C  0.57972592  0.17643293  0.75930318    -0.22200
C1526       C  0.57886383  0.17517716  0.72944426    -0.22200
C1527       C  0.44120499  0.16817211  0.76595307    -0.22200
C1528       C  0.44016970  0.16703130  0.73612282    -0.22200
C1529       C  0.55193458  0.18552154  0.79812672    -0.17600
C1530       C  0.46988862  0.18163582  0.80131349    -0.17600
C1531       C  0.46651049  0.17711690  0.69614333    -0.17600
C1532       C  0.54873562  0.18021074  0.69237476    -0.17600
H1533       H  0.53343263  0.20421543  0.85065265     0.15300
H1534       H  0.48901884  0.20161720  0.85266606     0.15300
H1535       H  0.52741954  0.19249808  0.63819405     0.15300
H1536       H  0.48336718  0.19186499  0.64091882     0.15300
H1537       H  0.59463725  0.17425906  0.77249622     0.13600
H1538       H  0.59305698  0.17196053  0.71525371     0.13600
H1539       H  0.42764723  0.16405332  0.78080603     0.13600
H1540       H  0.42573746  0.16166970  0.72346714     0.13600
H1541       H  0.51063492  0.17302250  0.77254265     0.26900
H1542       H  0.50880114  0.17109847  0.72294068     0.26900
C1543       C  0.65832981  0.18406572  0.52247209     0.87200
C1544       C  0.67507835  0.16480802  0.51863445    -0.53000
C1545       C  0.68902707  0.16685850  0.49528610     0.10100
C1546       C  0.68493734  0.18879986  0.97579155     0.21100
C1547       C  0.67298592  0.20571971  0.52304973    -0.53800
C1548       C  0.68711335  0.20819414  0.49962137     0.10200
C1549       C  0.64598451  0.18615914  0.49335627    -0.53300
C1550       C  0.65945270  0.18840589  0.96765041     0.10800
H1551       H  0.67575057  0.15043854  0.53330287     0.15300
H1552       H  0.69665313  0.19019124  0.95741781     0.01100
H1553       H  0.67231281  0.21824171  0.54036597     0.15600
H1554       H  0.62777267  0.18653930  0.49199102     0.15400
C1555       C  0.82131013  0.36644481  0.97424783     0.87200
C1556       C  0.84297054  0.35283009  0.97798200    -0.53000
C1557       C  0.84325502  0.33918701  0.00175847     0.10100
C1558       C  0.82199471  0.34073230  0.51949991     0.28700
C1559       C  0.80241891  0.34857392  0.97461771    -0.53800
C1560       C  0.80235160  0.33516304  0.99880057     0.10200
C1561       C  0.81743181  0.37903674  0.00303801    -0.53300
C1562       C  0.81950000  0.36653148  0.52579945     0.10800
H1563       H  0.85660100  0.35311449  0.96217696     0.15300
H1564       H  0.82290308  0.32958531  0.53861327     0.01100
H1565       H  0.78993257  0.34669787  0.95752651     0.15600
H1566       H  0.81388319  0.39696268  0.00411169     0.15400
N1567       N  0.81943494  0.51539003  0.79716547    -0.35900
N1568       N  0.82130815  0.48053026  0.75142024    -0.56500
N1569       N  0.82428254  0.51557787  0.70773953    -0.35900
N1570       N  0.81986689  0.55034810  0.75352790    -0.56500
C1571       C  0.81547886  0.49667493  0.81322540     0.27700
C1572       C  0.81432893  0.53361075  0.81393056     0.27700
C1573       C  0.82154824  0.49727366  0.69018827     0.27700
C1574       C  0.82047668  0.53422967  0.69148903     0.27700
C1575       C  0.82182561  0.46690111  0.77496008     0.36300
C1576       C  0.82388167  0.46696826  0.72784218     0.36300
C1577       C  0.82228895  0.56352636  0.77742486     0.36300
C1578       C  0.82469441  0.56357824  0.73049668     0.36300
C1579       C  0.80817888  0.50309731  0.84076755    -0.21200
C1580       C  0.80723797  0.52634199  0.84109887    -0.21200
C1581       C  0.81665528  0.50448697  0.66219711    -0.21200
C1582       C  0.81583914  0.52774418  0.66306151    -0.21200
C1583       C  0.82422112  0.44453352  0.76622764    -0.22200
C1584       C  0.82539621  0.44457202  0.73644902    -0.22200
C1585       C  0.82878234  0.58519640  0.76955860    -0.22200
C1586       C  0.83011869  0.58528917  0.73975875    -0.22200
C1587       C  0.81918942  0.47399298  0.80425039    -0.17600
C1588       C  0.81725326  0.55663189  0.80605977    -0.17600
C1589       C  0.82213002  0.55699912  0.70116534    -0.17600
C1590       C  0.82366143  0.47424905  0.69851872    -0.17600
H1591       H  0.80399002  0.49223061  0.85889360     0.15300
H1592       H  0.80222911  0.53670565  0.85946285     0.15300
H1593       H  0.81383375  0.49412373  0.64306610     0.15300
H1594       H  0.81235931  0.53864409  0.64473860     0.15300
H1595       H  0.82479399  0.42965575  0.77987004     0.13600
H1596       H  0.82703923  0.42974290  0.72271299     0.13600
H1597       H  0.83170293  0.59956551  0.78376533     0.13600
H1598       H  0.83424316  0.59977384  0.72640120     0.13600
H1599       H  0.82758545  0.51564463  0.77720934     0.26900
H1600       H  0.83045737  0.51553367  0.72883316     0.26900
C1601       C  0.81267256  0.38666138  0.60602278    -0.11200
C1602       C  0.82157602  0.40863734  0.60396254     0.11400
C1603       C  0.83111920  0.41574973  0.57733988    -0.03000
C1604       C  0.83174353  0.40042271  0.55396942    -0.05700
C1605       C  0.82115031  0.37896402  0.55472582    -0.16500
C1606       C  0.81157450  0.37182412  0.58173057     0.02400
C1607       C  0.82120541  0.42389789  0.62997624     0.12400
C1608       C  0.83997174  0.43974224  0.57308931     0.63000
H1609       H  0.84038474  0.40554200  0.53437028     0.12400
C1610       C  0.80037669  0.34895425  0.58592141     0.55100
H1611       H  0.80637457  0.38125303  0.62700993     0.08200
C1612       C  0.80123153  0.43454367  0.63995577    -0.05600
C1613       C  0.80272150  0.45035131  0.66293190    -0.06300
C1614       C  0.82349180  0.45651641  0.67518688    -0.15900
C1615       C  0.84344834  0.44597747  0.66514523    -0.01500
C1616       C  0.84178650  0.42916507  0.64343554    -0.09100
C1617       C  0.77856357  0.42980627  0.62590475     0.65200
H1618       H  0.78770577  0.45858228  0.67109202     0.10700
C1619       C  0.86643446  0.45301724  0.67653561     0.63600
H1620       H  0.85676966  0.42052919  0.63590812     0.08000
F1621       F  0.78757878  0.34841382  0.61113991    -0.19400
F1622       F  0.81665218  0.33241800  0.58819559    -0.15700
F1623       F  0.78610676  0.34407709  0.56307761    -0.19200
F1624       F  0.85922899  0.44314072  0.58936071    -0.22500
F1625       F  0.82379306  0.45522110  0.58156723    -0.24000
F1626       F  0.84526797  0.44403015  0.54426682    -0.18000
F1627       F  0.86829054  0.44773829  0.70568958    -0.20500
F1628       F  0.86931946  0.47608564  0.67308745    -0.21700
F1629       F  0.88368812  0.44220549  0.66176007    -0.18800
F1630       F  0.76171193  0.44316967  0.63767410    -0.18900
F1631       F  0.77256303  0.40744517  0.63005828    -0.22800
F1632       F  0.77971886  0.43418271  0.59639233    -0.24400
C1633       C  0.83898074  0.43053344  0.85915240    -0.11200
C1634       C  0.81839211  0.42301008  0.87061301     0.11400
C1635       C  0.79798156  0.43269372  0.86091803    -0.03000
C1636       C  0.79881401  0.44833001  0.83796059    -0.05700
C1637       C  0.81944451  0.45623470  0.82703364    -0.16500
C1638       C  0.83990617  0.44779031  0.83829986     0.02400
C1639       C  0.81927015  0.40787560  0.89609317     0.12400
C1640       C  0.77581670  0.42815299  0.87645200     0.63000
H1641       H  0.78345271  0.45559816  0.82949855     0.12400
C1642       C  0.86246900  0.45795176  0.82964626     0.55100
H1643       H  0.85438513  0.42362256  0.86799346     0.08200
C1644       C  0.81675588  0.38415534  0.89396894    -0.05600
C1645       C  0.81707565  0.37142590  0.91982373    -0.06300
C1646       C  0.82235933  0.38137826  0.94700744    -0.15900
C1647       C  0.83018509  0.40429871  0.94698513    -0.01500
C1648       C  0.82594225  0.41758035  0.92246828    -0.09100
C1649       C  0.81571194  0.37229141  0.86457888     0.65200
H1650       H  0.81421143  0.35335928  0.91871105     0.10700
C1651       C  0.84562937  0.41496099  0.96968299     0.63600
H1652       H  0.82997672  0.43550620  0.92303723     0.08000
F1653       F  0.86597736  0.45550789  0.80007046    -0.19400
F1654       F  0.88019827  0.44769291  0.84394181    -0.15700
F1655       F  0.86274979  0.48072799  0.83672493    -0.19200
F1656       F  0.77738996  0.43557990  0.90496225    -0.22500
F1657       F  0.77082931  0.40532863  0.87641105    -0.24000
F1658       F  0.75808084  0.43936479  0.86342116    -0.18000
F1659       F  0.86259167  0.42703165  0.95593541    -0.20500
F1660       F  0.85621607  0.39908616  0.98676014    -0.21700
F1661       F  0.83358253  0.42984688  0.98696580    -0.18800
F1662       F  0.81316400  0.34911138  0.86749189    -0.18900
F1663       F  0.83553581  0.37633432  0.84962275    -0.22800
F1664       F  0.79796857  0.38020171  0.84819370    -0.24400
C1665       C  0.74783242  0.30103175  0.00464962    -0.11200
C1666       C  0.75518123  0.27948457  0.50042917     0.11400
C1667       C  0.77853729  0.27562100  0.49676149    -0.03000
C1668       C  0.79352114  0.29405871  0.49971751    -0.05700
C1669       C  0.78583416  0.31641883  0.00214358    -0.16500
C1670       C  0.76222356  0.31995086  0.00461245     0.02400
C1671       C  0.73825828  0.26083702  0.50021659     0.12400
C1672       C  0.78733189  0.25288151  0.48621226     0.63000
H1673       H  0.81140554  0.29150563  0.49671497     0.12400
C1674       C  0.75089197  0.34292455  0.00699483     0.55100
H1675       H  0.72981599  0.30357254  0.00674839     0.08200
C1676       C  0.73334821  0.24823990  0.52556782    -0.05600
C1677       C  0.71705897  0.23093129  0.52392923    -0.06300
C1678       C  0.70437885  0.22682329  0.49852382    -0.15900
C1679       C  0.70986845  0.24020282  0.97271890    -0.01500
C1680       C  0.72737055  0.25634989  0.97470510    -0.09100
C1681       C  0.74436794  0.25388882  0.55461886     0.65200
H1682       H  0.71380123  0.22062728  0.54290860     0.10700
C1683       C  0.69643252  0.23890343  0.94467075     0.63600
H1684       H  0.73196450  0.26632889  0.95585990     0.08000
F1685       F  0.73773309  0.34347721  0.03187399    -0.19400
F1686       F  0.73711602  0.34595991  0.98308653    -0.15700
F1687       F  0.76573728  0.36090412  0.00838388    -0.19200
F1688       F  0.77977508  0.24911859  0.45814872    -0.22500
F1689       F  0.77982042  0.23543639  0.50364364    -0.24000
F1690       F  0.81064060  0.25231105  0.48595472    -0.18000
F1691       F  0.67373318  0.23684688  0.95072538    -0.20500
F1692       F  0.70351877  0.22080023  0.92798383    -0.21700
F1693       F  0.69922152  0.25829034  0.92819971    -0.18800
F1694       F  0.73626176  0.24034282  0.57683225    -0.18900
F1695       F  0.73995401  0.27616424  0.56191080    -0.22800
F1696       F  0.76738894  0.25096786  0.55307619    -0.24400
C1697       C  0.58870832  0.17415298  0.86495554    -0.11200
C1698       C  0.60359941  0.19262068  0.86434063     0.11400
C1699       C  0.60312187  0.20753285  0.84028553    -0.03000
C1700       C  0.58564442  0.20516095  0.81961507    -0.05700
C1701       C  0.57009500  0.18713708  0.82086822    -0.16500
C1702       C  0.57253468  0.17061117  0.84297845     0.02400
C1703       C  0.62008015  0.19488904  0.88872615     0.12400
C1704       C  0.62177491  0.22479405  0.83553655     0.63000
H1705       H  0.58431204  0.21702430  0.80180134     0.12400
C1706       C  0.55902328  0.14873314  0.84256087     0.55100
H1707       H  0.59009395  0.16228621  0.88277136     0.08200
C1708       C  0.61541905  0.20808976  0.91376172    -0.05600
C1709       C  0.63067285  0.20757527  0.93720710    -0.06300
C1710       C  0.64891520  0.19232414  0.93816703    -0.15900
C1711       C  0.65331253  0.17882517  0.91306766    -0.01500
C1712       C  0.63917691  0.18097932  0.88847466    -0.09100
C1713       C  0.59330956  0.22081060  0.91703287     0.65200
H1714       H  0.62733995  0.21786858  0.95627354     0.10700
C1715       C  0.67148720  0.16090233  0.91265376     0.63600
H1716       H  0.64208987  0.17070765  0.86926663     0.08000
F1717       F  0.53661230  0.15297160  0.84829752    -0.19400
F1718       F  0.56669151  0.13357208  0.86317404    -0.15700
F1719       F  0.56095035  0.13852919  0.81552022    -0.19200
F1720       F  0.64220096  0.21372342  0.83360501    -0.22500
F1721       F  0.62272963  0.24004217  0.85834371    -0.24000
F1722       F  0.61868314  0.23684082  0.81007481    -0.18000
F1723       F  0.67049415  0.14759569  0.88780495    -0.20500
F1724       F  0.66878252  0.14681803  0.93625485    -0.21700
F1725       F  0.69248422  0.17093810  0.91346029    -0.18800
F1726       F  0.59221748  0.23265375  0.94306917    -0.18900
F1727       F  0.57561271  0.20555252  0.91642624    -0.22800
F1728       F  0.59056418  0.23610855  0.89472043    -0.24400
C1729       C  0.59324373  0.16001125  0.63782008    -0.11200
C1730       C  0.59729065  0.17993521  0.62219690     0.11400
C1731       C  0.58449243  0.19950009  0.62844754    -0.03000
C1732       C  0.56998771  0.19923963  0.65268992    -0.05700
C1733       C  0.56559829  0.17922366  0.66818859    -0.16500
C1734       C  0.57681639  0.15897039  0.65985466     0.02400
C1735       C  0.61388439  0.17935523  0.59801224     0.12400
C1736       C  0.58478023  0.21978277  0.60820246     0.63000
H1737       H  0.56091756  0.21440771  0.65880388     0.12400
C1738       C  0.57198184  0.13578520  0.67266039     0.55100
H1739       H  0.60246021  0.14484442  0.63194718     0.08200
C1740       C  0.63614170  0.18744334  0.60127117    -0.05600
C1741       C  0.65003369  0.18857600  0.57643475    -0.06300
C1742       C  0.64298958  0.18017371  0.54906324    -0.15900
C1743       C  0.62259739  0.16716355  0.54830824    -0.01500
C1744       C  0.60760346  0.16889909  0.57190688    -0.09100
C1745       C  0.64547788  0.19351988  0.63109574     0.65200
H1746       H  0.66684139  0.19541662  0.57862633     0.10700
C1747       C  0.61612852  0.14991704  0.52499728     0.63600
H1748       H  0.59119801  0.16083053  0.57059275     0.08000
F1749       F  0.59102290  0.12802638  0.68668979    -0.19400
F1750       F  0.56666518  0.12089786  0.65035351    -0.15700
F1751       F  0.55427489  0.13562197  0.69217739    -0.19200
F1752       F  0.57760790  0.21303043  0.58086936    -0.22500
F1753       F  0.60621228  0.22871365  0.60587100    -0.24000
F1754       F  0.57059985  0.23677701  0.61787939    -0.18000
F1755       F  0.60912679  0.13010513  0.53828393    -0.20500
F1756       F  0.63364959  0.14407022  0.50675262    -0.21700
F1757       F  0.59846650  0.15819410  0.50865251    -0.18800
F1758       F  0.66778670  0.20029010  0.62962189    -0.18900
F1759       F  0.64421486  0.17475510  0.64892910    -0.22800
F1760       F  0.63327679  0.21086779  0.64362336    -0.24400
C1761       C  0.20210663  0.36938437  0.90140033    -0.11200
C1762       C  0.18595875  0.38668257  0.89950473     0.11400
C1763       C  0.17056188  0.38968432  0.92288492    -0.03000
C1764       C  0.17141729  0.37474195  0.94661669    -0.05700
C1765       C  0.18842993  0.35844889  0.94940212    -0.16500
C1766       C  0.20461513  0.35627101  0.92686068     0.02400
C1767       C  0.18656739  0.40257048  0.87410606     0.12400
C1768       C  0.15408413  0.40933027  0.92387570     0.63000
H1769       H  0.15937877  0.37648940  0.96421799     0.12400
C1770       C  0.22543710  0.34177188  0.93059246     0.55100
H1771       H  0.21349985  0.36696180  0.88326670     0.08200
C1772       C  0.20461638  0.41801308  0.86955685    -0.05600
C1773       C  0.20315602  0.43359199  0.84647148    -0.06300
C1774       C  0.18345208  0.43603767  0.82988347    -0.15900
C1775       C  0.16503203  0.42118290  0.83530801    -0.01500
C1776       C  0.16763219  0.40377997  0.85590409    -0.09100
C1777       C  0.22490010  0.41894362  0.88969515     0.65200
H1778       H  0.21717784  0.44480481  0.84190972     0.10700
C1779       C  0.14204345  0.42320662  0.82110152     0.63600
H1780       H  0.15402821  0.39176514  0.85905189     0.08000
F1781       F  0.24058912  0.34473739  0.90797892    -0.19400
F1782       F  0.21949179  0.31923621  0.93137592    -0.15700
F1783       F  0.23626623  0.34755046  0.95623256    -0.19200
F1784       F  0.13685783  0.40573915  0.90422389    -0.22500
F1785       F  0.16506035  0.42935870  0.91728918    -0.24000
F1786       F  0.14454471  0.41184588  0.95121596    -0.18000
F1787       F  0.13799564  0.40424568  0.80412868    -0.20500
F1788       F  0.13987987  0.44220713  0.80393581    -0.21700
F1789       F  0.12570560  0.42437065  0.84256291    -0.18800
F1790       F  0.23825825  0.43771959  0.88431367    -0.18900
F1791       F  0.23805127  0.39993793  0.88584133    -0.22800
F1792       F  0.21785478  0.42015971  0.91837618    -0.24400
C1793       C  0.18388204  0.37259033  0.61073740    -0.11200
C1794       C  0.19367201  0.39382554  0.60623852     0.11400
C1795       C  0.20424880  0.39854324  0.57944996    -0.03000
C1796       C  0.20297457  0.38227339  0.55713031    -0.05700
C1797       C  0.19076920  0.36175277  0.56011240    -0.16500
C1798       C  0.18326508  0.35594113  0.58875741     0.02400
C1799       C  0.19345738  0.41033662  0.63061326     0.12400
C1800       C  0.21680550  0.42067113  0.57444258     0.63000
H1801       H  0.21200307  0.38557604  0.53718251     0.12400
C1802       C  0.17567091  0.33253980  0.59820095     0.55100
H1803       H  0.17703705  0.36885438  0.63209524     0.08200
C1804       C  0.17431192  0.42374221  0.63671234    -0.05600
C1805       C  0.17518607  0.43891838  0.66029133    -0.06300
C1806       C  0.19436871  0.44078805  0.67790437    -0.15900
C1807       C  0.21347046  0.42723747  0.67200729    -0.01500
C1808       C  0.21259971  0.41204762  0.64836002    -0.09100
C1809       C  0.15306704  0.42192740  0.61845937     0.65200
H1810       H  0.16079847  0.44944337  0.66538255     0.10700
C1811       C  0.23462416  0.42891597  0.69042157     0.63600
H1812       H  0.22684184  0.40126200  0.64352823     0.08000
F1813       F  0.15242138  0.33143550  0.59834702    -0.19400
F1814       F  0.18324976  0.32811813  0.62610420    -0.15700
F1815       F  0.18430087  0.31576460  0.58064787    -0.19200
F1816       F  0.23523494  0.42191253  0.59271737    -0.22500
F1817       F  0.20279205  0.43881360  0.58004052    -0.24000
F1818       F  0.22445450  0.42257549  0.54606241    -0.18000
F1819       F  0.23011526  0.42192525  0.71849232    -0.20500
F1820       F  0.24223788  0.45104545  0.69109860    -0.21700
F1821       F  0.25175328  0.41550252  0.67946879    -0.18800
F1822       F  0.13672608  0.43703605  0.62760020    -0.18900
F1823       F  0.14419335  0.40033968  0.62052722    -0.22800
F1824       F  0.15797791  0.42646575  0.58964000    -0.24400
C1825       C  0.24371489  0.26163649  0.98497899    -0.11200
C1826       C  0.26005221  0.26589662  0.49992773     0.11400
C1827       C  0.26229010  0.28642050  0.51550910    -0.03000
C1828       C  0.24542559  0.30283901  0.51277769    -0.05700
C1829       C  0.22447381  0.29853158  0.49913834    -0.16500
C1830       C  0.22530531  0.27677024  0.98451409     0.02400
C1831       C  0.27806624  0.24823849  0.50020589     0.12400
C1832       C  0.28186254  0.29082240  0.53615643     0.63000
H1833       H  0.24867577  0.31930223  0.52218753     0.12400
C1834       C  0.20396402  0.26866279  0.96946145     0.55100
H1835       H  0.24275287  0.24570315  0.97333286     0.08200
C1836       C  0.27527980  0.22694130  0.51395785    -0.05600
C1837       C  0.29332197  0.21141661  0.51344227    -0.06300
C1838       C  0.31621592  0.21572086  0.00330137    -0.15900
C1839       C  0.32047343  0.23810500  0.99328641    -0.01500
C1840       C  0.30231415  0.25300162  0.99015702    -0.09100
C1841       C  0.25351002  0.22068014  0.52942247     0.65200
H1842       H  0.29078203  0.19472551  0.52229271     0.10700
C1843       C  0.34380940  0.24783005  0.98775975     0.63600
H1844       H  0.30506357  0.26908006  0.97948172     0.08000
F1845       F  0.20442636  0.24560646  0.96392363    -0.19400
F1846       F  0.20155947  0.27940013  0.94304597    -0.15700
F1847       F  0.18544683  0.27256912  0.98668950    -0.19200
F1848       F  0.30130787  0.29517482  0.52064312    -0.22500
F1849       F  0.28515474  0.27222922  0.55383671    -0.24000
F1850       F  0.27781304  0.30925129  0.55411217    -0.18000
F1851       F  0.34710692  0.25060887  0.95818138    -0.20500
F1852       F  0.36073568  0.23447616  0.99903851    -0.21700
F1853       F  0.34559606  0.26879426  0.00115227    -0.18800
F1854       F  0.25543800  0.20052332  0.54446285    -0.18900
F1855       F  0.23628959  0.21821336  0.50947519    -0.22800
F1856       F  0.24788501  0.23741998  0.54924758    -0.24400
C1857       C  0.37972843  0.16714726  0.60345767    -0.11200
C1858       C  0.39951862  0.18015993  0.60387391     0.11400
C1859       C  0.40486478  0.19375951  0.57960363    -0.03000
C1860       C  0.38997911  0.19404392  0.55579033    -0.05700
C1861       C  0.37081443  0.17983631  0.55407806    -0.16500
C1862       C  0.36522400  0.16655862  0.57898722     0.02400
C1863       C  0.41508428  0.17834755  0.62926925     0.12400
C1864       C  0.42699238  0.20676566  0.57803557     0.63000
H1865       H  0.39399504  0.20462724  0.53730251     0.12400
C1866       C  0.34446129  0.15159656  0.58035191     0.55100
H1867       H  0.37597725  0.15705747  0.62249401     0.08200
C1868       C  0.41376667  0.19304687  0.65362674    -0.05600
C1869       C  0.43080478  0.19206839  0.67497692    -0.06300
C1870       C  0.44806868  0.17580978  0.67379577    -0.15900
C1871       C  0.44782646  0.15952744  0.65091560    -0.01500
C1872       C  0.43183774  0.16168124  0.62849521    -0.09100
C1873       C  0.39412807  0.20920066  0.65736254     0.65200
H1874       H  0.43077951  0.20401879  0.69291359     0.10700
C1875       C  0.46384572  0.13958897  0.64902626     0.63600
H1876       H  0.43227806  0.15002875  0.61020316     0.08000
F1877       F  0.32546074  0.16487735  0.58272377    -0.19400
F1878       F  0.34485824  0.13732656  0.60418203    -0.15700
F1879       F  0.34306669  0.13819410  0.55584776    -0.19200
F1880       F  0.44473505  0.19167951  0.57819448    -0.22500
F1881       F  0.42912482  0.22123009  0.60157297    -0.24000
F1882       F  0.42859078  0.21959275  0.55296232    -0.18000
F1883       F  0.45169536  0.12001547  0.64351438    -0.20500
F1884       F  0.47584417  0.13615821  0.67436930    -0.21700
F1885       F  0.47882967  0.14302951  0.62639587    -0.18800
F1886       F  0.39619222  0.22217069  0.68239138    -0.18900
F1887       F  0.37433815  0.19690415  0.65928278    -0.22800
F1888       F  0.39271798  0.22370176  0.63393175    -0.24400
C1889       C  0.38382730  0.16995419  0.89220697    -0.11200
C1890       C  0.40572431  0.17818917  0.89605609     0.11400
C1891       C  0.41203115  0.18755023  0.92312650    -0.03000
C1892       C  0.39677352  0.18626012  0.94641455    -0.05700
C1893       C  0.37528855  0.17606185  0.94372011    -0.16500
C1894       C  0.36789038  0.17013524  0.91496507     0.02400
C1895       C  0.42134853  0.17821168  0.87084582     0.12400
C1896       C  0.43463254  0.19932237  0.92719738     0.63000
H1897       H  0.40146314  0.19419274  0.96671901     0.12400
C1898       C  0.34365316  0.16490026  0.90624994     0.55100
H1899       H  0.37893284  0.16409221  0.87071979     0.08200
C1900       C  0.43479214  0.15921517  0.86389400    -0.05600
C1901       C  0.45062916  0.16111234  0.84122208    -0.06300
C1902       C  0.45295703  0.18116679  0.82523620    -0.15900
C1903       C  0.43889525  0.19987778  0.83149498    -0.01500
C1904       C  0.42317464  0.19800418  0.85428161    -0.09100
C1905       C  0.43225602  0.13709938  0.88031168     0.65200
H1906       H  0.46129352  0.14691069  0.83561547     0.10700
C1907       C  0.44065731  0.22172631  0.81436407     0.63600
H1908       H  0.41235798  0.21212345  0.85973821     0.08000
F1909       F  0.34051800  0.14173211  0.90483210    -0.19400
F1910       F  0.33923411  0.17378694  0.87899975    -0.15700
F1911       F  0.32800180  0.17426001  0.92491661    -0.19200
F1912       F  0.43560097  0.21836203  0.90984886    -0.22500
F1913       F  0.45196063  0.18490563  0.91955297    -0.24000
F1914       F  0.43802099  0.20610607  0.95574401    -0.18000
F1915       F  0.43559962  0.21768561  0.78544854    -0.20500
F1916       F  0.46226707  0.23034071  0.81636154    -0.21700
F1917       F  0.42594083  0.23801553  0.82471234    -0.18800
F1918       F  0.44702664  0.12077677  0.87020019    -0.18900
F1919       F  0.41058871  0.12887213  0.87695266    -0.22800
F1920       F  0.43643838  0.14053957  0.90959651    -0.24400
C1921       C  0.79736869  0.61727126  0.92171643    -0.11200
C1922       C  0.81229142  0.62291369  0.89934498     0.11400
C1923       C  0.82325186  0.64425402  0.89984668    -0.03000
C1924       C  0.82149082  0.65780685  0.92520092    -0.05700
C1925       C  0.80737857  0.65148682  0.94842353    -0.16500
C1926       C  0.79355855  0.63189352  0.94526942     0.02400
C1927       C  0.81461120  0.60655283  0.87489779     0.12400
C1928       C  0.83563833  0.65301792  0.87321643     0.63000
H1929       H  0.83125299  0.67324475  0.92712338     0.12400
C1930       C  0.77414687  0.62591150  0.96546613     0.55100
H1931       H  0.78794563  0.60155025  0.92018683     0.08200
C1932       C  0.83201248  0.59022090  0.87403906    -0.05600
C1933       C  0.83275236  0.57494093  0.85048119    -0.06300
C1934       C  0.81572556  0.57431539  0.82933284    -0.15900
C1935       C  0.79733804  0.58951905  0.83152699    -0.01500
C1936       C  0.79746466  0.60581867  0.85396032    -0.09100
C1937       C  0.84870771  0.58784191  0.89887836     0.65200
H1938       H  0.84619115  0.56264846  0.84893916     0.10700
C1939       C  0.77734746  0.58825524  0.81095323     0.63600
H1940       H  0.78386812  0.61792364  0.85573594     0.08000
F1941       F  0.78015831  0.60777666  0.98268773    -0.19400
F1942       F  0.75553675  0.61981195  0.94907691    -0.15700
F1943       F  0.76932200  0.64007542  0.48876760    -0.19200
F1944       F  0.82057927  0.65498654  0.85044021    -0.22500
F1945       F  0.85257291  0.63836893  0.86497351    -0.24000
F1946       F  0.84518847  0.67406679  0.87826937    -0.18000
F1947       F  0.75935852  0.60083842  0.82122791    -0.20500
F1948       F  0.77011221  0.56609654  0.80794004    -0.21700
F1949       F  0.78331378  0.59660270  0.78398811    -0.18800
F1950       F  0.86433654  0.57101102  0.89339164    -0.18900
F1951       F  0.83723375  0.58230817  0.92408501    -0.22800
F1952       F  0.86030365  0.60782918  0.90338070    -0.24400
C1953       C  0.82250816  0.64586655  0.61248727    -0.11200
C1954       C  0.81661040  0.62303971  0.60979967     0.11400
C1955       C  0.80650767  0.61515198  0.58389227    -0.03000
C1956       C  0.80360805  0.63036965  0.56096140    -0.05700
C1957       C  0.81176242  0.65285023  0.56198359    -0.16500
C1958       C  0.81938446  0.66127314  0.58956028     0.02400
C1959       C  0.81920239  0.60805254  0.63526666     0.12400
C1960       C  0.79868080  0.59074000  0.58033885     0.63000
H1961       H  0.79431968  0.62459911  0.54218199     0.12400
C1962       C  0.82356922  0.68600261  0.59710546     0.55100
H1963       H  0.82893341  0.65186728  0.63322479     0.08200
C1964       C  0.84010012  0.59822770  0.64277587    -0.05600
C1965       C  0.84040417  0.58156466  0.66450656    -0.06300
C1966       C  0.82068129  0.57522011  0.67917295    -0.15900
C1967       C  0.80009996  0.58620509  0.67304544    -0.01500
C1968       C  0.79976715  0.60258033  0.65106386    -0.09100
C1969       C  0.86185545  0.60535261  0.62800789     0.65200
H1970       H  0.85600750  0.57329054  0.67028100     0.10700
C1971       C  0.77862214  0.58056671  0.68950781     0.63600
H1972       H  0.78417894  0.61097263  0.64549722     0.08000
F1973       F  0.84649271  0.69005924  0.59835918    -0.19400
F1974       F  0.81434577  0.69084441  0.62412195    -0.15700
F1975       F  0.81384571  0.70070482  0.57773121    -0.19200
F1976       F  0.77995511  0.58690693  0.59753405    -0.22500
F1977       F  0.81564295  0.57606517  0.58837679    -0.24000
F1978       F  0.79294480  0.58579296  0.55179669    -0.18000
F1979       F  0.78108920  0.58634574  0.71850829    -0.20500
F1980       F  0.77401855  0.55767613  0.68730238    -0.21700
F1981       F  0.76027958  0.59222705  0.67870117    -0.18800
F1982       F  0.88009146  0.59309362  0.63799132    -0.18900
F1983       F  0.86601289  0.62797783  0.63367487    -0.22800
F1984       F  0.86021970  0.60208896  0.59826833    -0.24400
C1985       C  0.69400637  0.75814811  0.98750553    -0.11200
C1986       C  0.71420560  0.75882598  0.50527243     0.11400
C1987       C  0.71785874  0.77977268  0.51962081    -0.03000
C1988       C  0.70057079  0.79607512  0.51957884    -0.05700
C1989       C  0.68110085  0.79566586  0.00252229    -0.16500
C1990       C  0.67630100  0.77373880  0.99086925     0.02400
C1991       C  0.73210959  0.74113349  0.50317567     0.12400
C1992       C  0.74001095  0.78498118  0.53480903     0.63000
H1993       H  0.70404946  0.81259898  0.52867123     0.12400
C1994       C  0.65275038  0.76517355  0.98385275     0.55100
H1995       H  0.69083792  0.74218883  0.97651817     0.08200
C1996       C  0.73140863  0.72098436  0.51950460    -0.05600
C1997       C  0.74918390  0.70543668  0.51656977    -0.06300
C1998       C  0.76901251  0.71003462  0.50034409    -0.15900
C1999       C  0.76875990  0.73075604  0.97691655    -0.01500
C2000       C  0.75082558  0.74647085  0.97871782    -0.09100
C2001       C  0.71236959  0.71620450  0.54082522     0.65200
H2002       H  0.74754969  0.68943328  0.52761034     0.10700
C2003       C  0.78703712  0.73575398  0.95463189     0.63600
H2004       H  0.75084088  0.76153904  0.96539719     0.08000
F2005       F  0.65058020  0.74276843  0.99215151    -0.19400
F2006       F  0.64900892  0.76643870  0.95419779    -0.15700
F2007       F  0.63633089  0.77711011  0.99869605    -0.19200
F2008       F  0.75724595  0.78622482  0.51464459    -0.22500
F2009       F  0.74478955  0.76816041  0.55468598    -0.24000
F2010       F  0.73930650  0.80538525  0.54969708    -0.18000
F2011       F  0.78666426  0.71928030  0.93316581    -0.20500
F2012       F  0.80782761  0.73695501  0.96787476    -0.21700
F2013       F  0.78384159  0.75627641  0.94079587    -0.18800
F2014       F  0.71619298  0.69679958  0.55684909    -0.18900
F2015       F  0.69233411  0.71335095  0.52602064    -0.22800
F2016       F  0.71027149  0.73406471  0.56018145    -0.24400
C2017       C  0.56499830  0.84600304  0.63755267    -0.11200
C2018       C  0.58167836  0.82931665  0.63947063     0.11400
C2019       C  0.58325485  0.81612631  0.66496143    -0.03000
C2020       C  0.56589660  0.81760922  0.68580283    -0.05700
C2021       C  0.54855982  0.83366051  0.68341424    -0.16500
C2022       C  0.54895393  0.84914852  0.65982149     0.02400
C2023       C  0.59802019  0.82713983  0.61504794     0.12400
C2024       C  0.60391154  0.80181514  0.67089370     0.63000
H2025       H  0.56599871  0.80658221  0.70457178     0.12400
C2026       C  0.53365466  0.86974449  0.65906080     0.55100
H2027       H  0.56495806  0.85685395  0.61860285     0.08200
C2028       C  0.59482448  0.81148791  0.59201972    -0.05600
C2029       C  0.61026990  0.81146780  0.56869801    -0.06300
C2030       C  0.62689128  0.82841052  0.56571728    -0.15900
C2031       C  0.62936684  0.84457229  0.58848582    -0.01500
C2032       C  0.61559413  0.84290965  0.61339732    -0.09100
C2033       C  0.57399305  0.79647099  0.59065714     0.65200
H2034       H  0.60805957  0.79952242  0.55097474     0.10700
C2035       C  0.64431777  0.86507709  0.58513306     0.63600
H2036       H  0.61719277  0.85512701  0.63092179     0.08000
F2037       F  0.51140292  0.86339398  0.65607016    -0.19400
F2038       F  0.53892368  0.88392684  0.63608730    -0.15700
F2039       F  0.53614358  0.88197534  0.68459744    -0.19200
F2040       F  0.62271352  0.81567776  0.67173507    -0.22500
F2041       F  0.60685095  0.78577692  0.64930043    -0.24000
F2042       F  0.60232819  0.79071949  0.69729780    -0.18000
F2043       F  0.64369042  0.87911661  0.60932868    -0.20500
F2044       F  0.63684683  0.87733763  0.56150107    -0.21700
F2045       F  0.66635168  0.85840625  0.58113444    -0.18800
F2046       F  0.57386380  0.78291332  0.56600251    -0.18900
F2047       F  0.55495128  0.80986720  0.59002568    -0.22800
F2048       F  0.57285736  0.78254022  0.61466108    -0.24400
C2049       C  0.58094060  0.84459247  0.93406618    -0.11200
C2050       C  0.58923407  0.83785282  0.90691156     0.11400
C2051       C  0.61271645  0.83600548  0.90269322    -0.03000
C2052       C  0.62688116  0.83760636  0.92713637    -0.05700
C2053       C  0.61846088  0.84228500  0.95527996    -0.16500
C2054       C  0.59539253  0.84899730  0.95761558     0.02400
C2055       C  0.57306464  0.83578827  0.88252792     0.12400
C2056       C  0.62273838  0.83309753  0.87245271     0.63000
H2057       H  0.64479495  0.83507537  0.92441472     0.12400
C2058       C  0.58565633  0.86374462  0.98175288     0.55100
H2059       H  0.56309325  0.84810344  0.93619538     0.08200
C2060       C  0.56371767  0.81475666  0.87395407    -0.05600
C2061       C  0.54931676  0.81416546  0.84964706    -0.06300
C2062       C  0.54214505  0.83415489  0.83604864    -0.15900
C2063       C  0.54989244  0.85539817  0.84664811    -0.01500
C2064       C  0.56597747  0.85570736  0.86897174    -0.09100
C2065       C  0.56756669  0.79349111  0.89173521     0.65200
H2066       H  0.54262645  0.79817194  0.84188429     0.10700
C2067       C  0.54163732  0.87821566  0.83593413     0.63600
H2068       H  0.57258233  0.87179886  0.87663157     0.08000
F2069       F  0.57209168  0.85082403  0.99975236    -0.19400
F2070       F  0.57249182  0.88060567  0.96975641    -0.15700
F2071       F  0.60214046  0.87458279  0.99785318    -0.19200
F2072       F  0.61660871  0.85120555  0.85525699    -0.22500
F2073       F  0.61499481  0.81336343  0.85969126    -0.24000
F2074       F  0.64602108  0.83222826  0.87318700    -0.18000
F2075       F  0.53377722  0.89064014  0.85941321    -0.20500
F2076       F  0.52438138  0.87673391  0.81588846    -0.21700
F2077       F  0.55939404  0.88979632  0.82333662    -0.18800
F2078       F  0.55710201  0.77480329  0.87942508    -0.18900
F2079       F  0.55881578  0.79662521  0.91937148    -0.22800
F2080       F  0.59026249  0.78885441  0.89403780    -0.24400
C2081       C  0.35804559  0.84134319  0.89938492    -0.11200
C2082       C  0.37647530  0.82675481  0.89739353     0.11400
C2083       C  0.38122326  0.81194891  0.92060678    -0.03000
C2084       C  0.36699099  0.81210397  0.94509523    -0.05700
C2085       C  0.34948718  0.82800513  0.94851200    -0.16500
C2086       C  0.34483340  0.84289414  0.92489724     0.02400
C2087       C  0.39230630  0.82952460  0.87257926     0.12400
C2088       C  0.40221336  0.79727498  0.92041679     0.63000
H2089       H  0.37052246  0.80074915  0.96294957     0.12400
C2090       C  0.32911285  0.86287216  0.92760672     0.55100
H2091       H  0.35539294  0.85296362  0.88155116     0.08200
C2092       C  0.39047177  0.81669347  0.84667814    -0.05600
C2093       C  0.40788642  0.81824454  0.82593283    -0.06300
C2094       C  0.42572904  0.83382829  0.82907880    -0.15900
C2095       C  0.42575058  0.84880100  0.85336941    -0.01500
C2096       C  0.40954127  0.84566103  0.87529855    -0.09100
C2097       C  0.36981259  0.80224429  0.84060191     0.65200
H2098       H  0.40760696  0.80741756  0.80685632     0.10700
C2099       C  0.44201776  0.86849126  0.85721945     0.63600
H2100       H  0.41012297  0.85618267  0.89469120     0.08000
F2101       F  0.30827346  0.85636690  0.93779577    -0.19400
F2102       F  0.32570435  0.87350477  0.90116875    -0.15700
F2103       F  0.33885554  0.87837724  0.94621692    -0.19200
F2104       F  0.42116782  0.81092744  0.91994529    -0.22500
F2105       F  0.40241653  0.78340483  0.89614863    -0.24000
F2106       F  0.40341958  0.78366037  0.94480935    -0.18000
F2107       F  0.42992742  0.88800240  0.86288242    -0.20500
F2108       F  0.45513110  0.87256329  0.83292400    -0.21700
F2109       F  0.45598601  0.86426421  0.88061723    -0.18800
F2110       F  0.37127929  0.79133098  0.81394414    -0.18900
F2111       F  0.35095787  0.81590962  0.84021975    -0.22800
F2112       F  0.36709279  0.78603839  0.86190911    -0.24400
C2113       C  0.40541847  0.80859063  0.64780164    -0.11200
C2114       C  0.40144096  0.82829418  0.63173134     0.11400
C2115       C  0.41151333  0.84899632  0.64032088    -0.03000
C2116       C  0.42723974  0.84879286  0.66312138    -0.05700
C2117       C  0.43184488  0.82891489  0.67850254    -0.16500
C2118       C  0.42018599  0.80866110  0.67167316     0.02400
C2119       C  0.38660189  0.82666519  0.60592815     0.12400
C2120       C  0.40504145  0.87120063  0.62614672     0.63000
H2121       H  0.43577330  0.86423849  0.66959724     0.12400
C2122       C  0.42308261  0.78746031  0.68983243     0.55100
H2123       H  0.39681189  0.79316434  0.64141690     0.08200
C2124       C  0.39505526  0.82077527  0.57829905    -0.05600
C2125       C  0.38012289  0.82002209  0.55462516    -0.06300
C2126       C  0.35690465  0.82505024  0.55736808    -0.15900
C2127       C  0.34818150  0.82811987  0.58644997    -0.01500
C2128       C  0.36352865  0.82970414  0.60977682    -0.09100
C2129       C  0.41974726  0.81476753  0.57408614     0.65200
H2130       H  0.38676188  0.81432574  0.53410859     0.10700
C2131       C  0.32317147  0.82911196  0.59443655     0.63600
H2132       H  0.35763119  0.83326754  0.63164277     0.08000
F2133       F  0.41028823  0.76961726  0.67925068    -0.19400
F2134       F  0.41635725  0.79173721  0.71815121    -0.15700
F2135       F  0.44538566  0.78087700  0.68981505    -0.19200
F2136       F  0.38237562  0.87515981  0.63073139    -0.22500
F2137       F  0.40915848  0.87034639  0.59655414    -0.24000
F2138       F  0.41700056  0.88928536  0.63766016    -0.18000
F2139       F  0.31983704  0.82595185  0.62400395    -0.20500
F2140       F  0.31122249  0.81221155  0.58062257    -0.21700
F2141       F  0.31414024  0.84990230  0.58772083    -0.18800
F2142       F  0.42479956  0.81002723  0.54527803    -0.18900
F2143       F  0.42488180  0.79587195  0.59040592    -0.22800
F2144       F  0.43330159  0.83255745  0.58295040    -0.24400
C2145       C  0.28660107  0.74461675  0.49241751    -0.11200
C2146       C  0.26454040  0.75048453  0.99849006     0.11400
C2147       C  0.25812044  0.77306572  0.00487517    -0.03000
C2148       C  0.27452363  0.79018402  0.00337789    -0.05700
C2149       C  0.29733720  0.78422711  0.49830819    -0.16500
C2150       C  0.30347386  0.76154829  0.49214522     0.02400
C2151       C  0.24831656  0.73127393  0.99940637     0.12400
C2152       C  0.23466450  0.78019117  0.01452583     0.63000
H2153       H  0.26951342  0.80746548  0.00685662     0.12400
C2154       C  0.32744579  0.75551561  0.48377719     0.55100
H2155       H  0.29092945  0.72717931  0.48778075     0.08200
C2156       C  0.23326315  0.72679131  0.97626552    -0.05600
C2157       C  0.21701048  0.70968024  0.97977680    -0.06300
C2158       C  0.21628945  0.69590400  0.00469460    -0.15900
C2159       C  0.23061594  0.69879260  0.52609248    -0.01500
C2160       C  0.24610283  0.71695648  0.52407742    -0.09100
C2161       C  0.23491854  0.73947448  0.94764047     0.65200
H2162       H  0.20500925  0.70641655  0.96251699     0.10700
C2163       C  0.23128964  0.68336970  0.55241810     0.63600
H2164       H  0.25749895  0.72056560  0.54189862     0.08000
F2165       F  0.32936604  0.73299708  0.47575491    -0.19400
F2166       F  0.34185103  0.75939797  0.50685274    -0.15700
F2167       F  0.33409289  0.76859321  0.46039286    -0.19200
F2168       F  0.23610091  0.79036644  0.04163106    -0.22500
F2169       F  0.21954253  0.76246934  0.01666359    -0.24000
F2170       F  0.22616445  0.79570518  0.99497412    -0.18000
F2171       F  0.23267464  0.66103575  0.54350191    -0.20500
F2172       F  0.21216854  0.68631484  0.56908486    -0.21700
F2173       F  0.24973165  0.68792230  0.56991838    -0.18800
F2174       F  0.21939363  0.73165276  0.92748188    -0.18900
F2175       F  0.25620201  0.73664320  0.93595646    -0.22800
F2176       F  0.23107429  0.76226048  0.95201890    -0.24400
C2177       C  0.17048560  0.62445841  0.60879495    -0.11200
C2178       C  0.18578632  0.60639953  0.60940444     0.11400
C2179       C  0.20081489  0.60343006  0.58581828    -0.03000
C2180       C  0.19962360  0.61837607  0.56209477    -0.05700
C2181       C  0.18332441  0.63562449  0.56027897    -0.16500
C2182       C  0.16905280  0.63936449  0.58477946     0.02400
C2183       C  0.18495098  0.59011185  0.63425473     0.12400
C2184       C  0.21723794  0.58376427  0.58491726     0.63000
H2185       H  0.21078217  0.61585509  0.54372887     0.12400
C2186       C  0.15223775  0.65860227  0.58599170     0.55100
H2187       H  0.15934626  0.62651361  0.62728943     0.08200
C2188       C  0.19685478  0.59380001  0.66054581    -0.05600
C2189       C  0.19655578  0.57675453  0.68204467    -0.06300
C2190       C  0.18334871  0.55701859  0.67907164    -0.15900
C2191       C  0.16984243  0.55442618  0.65369220    -0.01500
C2192       C  0.17166116  0.57056870  0.63129498    -0.09100
C2193       C  0.20934630  0.61586846  0.66604072     0.65200
H2194       H  0.20648586  0.57881652  0.70163171     0.10700
C2195       C  0.15315240  0.53517782  0.64917706     0.63600
H2196       H  0.16214634  0.56817207  0.61138261     0.08000
F2197       F  0.16355674  0.67902039  0.58736113    -0.19400
F2198       F  0.13846268  0.65726210  0.61027304    -0.15700
F2199       F  0.13858878  0.65812348  0.56179769    -0.19200
F2200       F  0.20542092  0.56359132  0.58368679    -0.22500
F2201       F  0.23061322  0.58388008  0.60949427    -0.24000
F2202       F  0.23126960  0.58476950  0.56085140    -0.18000
F2203       F  0.13330985  0.54358225  0.63781849    -0.20500
F2204       F  0.14771294  0.52414659  0.67472192    -0.21700
F2205       F  0.16204809  0.51973082  0.62965692    -0.18800
F2206       F  0.21993881  0.61602714  0.69286195    -0.18900
F2207       F  0.19427243  0.63364038  0.66553436    -0.22800
F2208       F  0.22550236  0.61931917  0.64483481    -0.24400
C2209       C  0.15931645  0.57283090  0.87311848    -0.11200
C2210       C  0.17836304  0.58668306  0.87629570     0.11400
C2211       C  0.19638060  0.58483613  0.85618817    -0.03000
C2212       C  0.19473894  0.56874190  0.83366704    -0.05700
C2213       C  0.17580871  0.55463817  0.83071247    -0.16500
C2214       C  0.15749380  0.55699885  0.85034728     0.02400
C2215       C  0.17933660  0.60225935  0.90167321     0.12400
C2216       C  0.21732925  0.59958477  0.85863998     0.63000
H2217       H  0.20851892  0.56661278  0.81843482     0.12400
C2218       C  0.13572660  0.54352622  0.84851711     0.55100
H2219       H  0.14569438  0.57435970  0.88874758     0.08200
C2220       C  0.16808366  0.62324286  0.90207699    -0.05600
C2221       C  0.16981534  0.63690879  0.92711004    -0.06300
C2222       C  0.18196427  0.63016375  0.95209668    -0.15900
C2223       C  0.19558364  0.61029899  0.94965483    -0.01500
C2224       C  0.19251041  0.59597460  0.92547424    -0.09100
C2225       C  0.15403872  0.63102428  0.87634983     0.65200
H2226       H  0.16182618  0.65325802  0.92680915     0.10700
C2227       C  0.21433024  0.60354249  0.97045983     0.63600
H2228       H  0.20144134  0.58000743  0.92444675     0.08000
F2229       F  0.11783028  0.55835216  0.84642100    -0.19400
F2230       F  0.13320338  0.53087344  0.87358517    -0.15700
F2231       F  0.13478021  0.52904594  0.82487049    -0.19200
F2232       F  0.22874760  0.59467358  0.88400578    -0.22500
F2233       F  0.21139779  0.62218020  0.85887821    -0.24000
F2234       F  0.23194498  0.59612679  0.83555023    -0.18000
F2235       F  0.20686765  0.58624955  0.98825662    -0.20500
F2236       F  0.22211992  0.62125114  0.98732624    -0.21700
F2237       F  0.23266123  0.59575447  0.95471656    -0.18800
F2238       F  0.14603656  0.65281473  0.88022445    -0.18900
F2239       F  0.13572930  0.61678280  0.87285402    -0.22800
F2240       F  0.16680193  0.63070625  0.85116858    -0.24400
C2241       C  0.25388353  0.93784801  0.51161307    -0.11200
C2242       C  0.25008244  0.92121819  0.99475554     0.11400
C2243       C  0.23434929  0.92277030  0.97184184    -0.03000
C2244       C  0.22086355  0.94223306  0.97010798    -0.05700
C2245       C  0.22258696  0.95872438  0.49087754    -0.16500
C2246       C  0.24004240  0.95713455  0.51183977     0.02400
C2247       C  0.26523512  0.90156671  0.99794196     0.12400
C2248       C  0.23131571  0.90358378  0.95005159     0.63000
H2249       H  0.20853607  0.94359111  0.95286303     0.12400
C2250       C  0.24445021  0.97578323  0.53398279     0.55100
H2251       H  0.26721713  0.93614059  0.52751106     0.08200
C2252       C  0.28782995  0.90229897  0.98835053    -0.05600
C2253       C  0.30154024  0.88342867  0.99344370    -0.06300
C2254       C  0.29441928  0.86256412  0.50080478    -0.15900
C2255       C  0.27351728  0.86373898  0.51592977    -0.01500
C2256       C  0.25927666  0.88228156  0.51087752    -0.09100
C2257       C  0.29748582  0.92305885  0.97333749     0.65200
H2258       H  0.31915371  0.88413287  0.98810129     0.10700
C2259       C  0.26567953  0.84713277  0.53891764     0.63600
H2260       H  0.24316011  0.88316674  0.52196560     0.08000
F2261       F  0.26437486  0.97237181  0.54892620    -0.19400
F2262       F  0.22717250  0.97642027  0.55416271    -0.15700
F2263       F  0.24598793  0.99645161  0.52005952    -0.19200
F2264       F  0.22398921  0.88437941  0.96437132    -0.22500
F2265       F  0.25148905  0.89891507  0.93629320    -0.24000
F2266       F  0.21562107  0.90882686  0.92889384    -0.18000
F2267       F  0.26179064  0.85870248  0.56467640    -0.20500
F2268       F  0.28107330  0.83038518  0.54467578    -0.21700
F2269       F  0.24573669  0.83717824  0.52999857    -0.18800
F2270       F  0.31971104  0.91997041  0.96521495    -0.18900
F2271       F  0.29660535  0.94150048  0.99189179    -0.22800
F2272       F  0.28524055  0.92776873  0.94855047    -0.24400
C2273       C  0.29905739  0.10054847  0.50100605    -0.11200
C2274       C  0.27529347  0.10775865  0.99236384     0.11400
C2275       C  0.27204414  0.13124329  0.98777563    -0.03000
C2276       C  0.29035912  0.14616736  0.99207810    -0.05700
C2277       C  0.31191598  0.13831439  0.99938877    -0.16500
C2278       C  0.31746338  0.11565183  0.50148903     0.02400
C2279       C  0.25663703  0.09085569  0.98951154     0.12400
C2280       C  0.24966675  0.14036836  0.97701208     0.63000
H2281       H  0.28830024  0.16406911  0.98800940     0.12400
C2282       C  0.34063280  0.10504785  0.50449457     0.55100
H2283       H  0.30207818  0.08257736  0.50358044     0.08200
C2284       C  0.25521807  0.07525040  0.96603617    -0.05600
C2285       C  0.23760111  0.05913894  0.96587020    -0.06300
C2286       C  0.22131788  0.05822026  0.98815627    -0.15900
C2287       C  0.22585138  0.07241119  0.51773594    -0.01500
C2288       C  0.24383083  0.08808997  0.51809526    -0.09100
C2289       C  0.27224470  0.07552126  0.94130342     0.65200
H2290       H  0.23673245  0.04674012  0.94848942     0.10700
C2291       C  0.20934111  0.07245813  0.54307344     0.63600
H2292       H  0.24653748  0.09876473  0.53699212     0.08000
F2293       F  0.34459502  0.09123238  0.48066075    -0.19400
F2294       F  0.34113009  0.09195045  0.52938175    -0.15700
F2295       F  0.35798692  0.12057158  0.50635494    -0.19200
F2296       F  0.23302731  0.13665754  0.99749214    -0.22500
F2297       F  0.24376459  0.12963401  0.95131322    -0.24000
F2298       F  0.25066988  0.16340294  0.97173124    -0.18000
F2299       F  0.21180906  0.05294565  0.55925385    -0.20500
F2300       F  0.18751866  0.07387753  0.53271768    -0.21700
F2301       F  0.21280499  0.09072096  0.56153609    -0.18800
F2302       F  0.26640042  0.06056732  0.91926786    -0.18900
F2303       F  0.29321805  0.06941810  0.95152577    -0.22800
F2304       F  0.27354465  0.09694765  0.92943350    -0.24400
C2305       C  0.91179803  0.25192522  0.52099253    -0.11200
C2306       C  0.91608193  0.27411982  0.00574928     0.11400
C2307       C  0.93591037  0.27749198  0.98914549    -0.03000
C2308       C  0.95200116  0.26002911  0.98789031    -0.05700
C2309       C  0.94961900  0.24012280  0.00424196    -0.16500
C2310       C  0.92831601  0.23485364  0.52033381     0.02400
C2311       C  0.89694376  0.29039118  0.00518716     0.12400
C2312       C  0.94029004  0.29966986  0.97351583     0.63000
H2313       H  0.96691521  0.26198970  0.97452618     0.12400
C2314       C  0.92516263  0.21393511  0.53907082     0.55100
H2315       H  0.89682338  0.24993440  0.53423204     0.08200
C2316       C  0.87872090  0.28756299  0.98560188    -0.05600
C2317       C  0.86126472  0.30360825  0.98581205    -0.06300
C2318       C  0.86123351  0.32197333  0.00525865    -0.15900
C2319       C  0.87853123  0.32321114  0.52383954    -0.01500
C2320       C  0.89553407  0.30657866  0.52398348    -0.09100
C2321       C  0.87764876  0.26757496  0.96471479     0.65200
H2322       H  0.84747396  0.30208353  0.97052037     0.10700
C2323       C  0.87991684  0.34334804  0.54432056     0.63600
H2324       H  0.90955328  0.30798388  0.53893534     0.08000
F2325       F  0.90447163  0.21381092  0.55300452    -0.19400
F2326       F  0.94166331  0.21327726  0.56023283    -0.15700
F2327       F  0.92644891  0.19464797  0.52207009    -0.19200
F2328       F  0.94121472  0.31709182  0.99366797    -0.22500
F2329       F  0.92327900  0.30400798  0.95385285    -0.24000
F2330       F  0.96050767  0.29937527  0.95847064    -0.18000
F2331       F  0.89916414  0.34280374  0.56126124    -0.20500
F2332       F  0.86148886  0.34337373  0.56270340    -0.21700
F2333       F  0.88017166  0.36319240  0.52846104    -0.18800
F2334       F  0.85903371  0.26864348  0.94666573    -0.18900
F2335       F  0.87635396  0.24766639  0.98032475    -0.22800
F2336       F  0.89664918  0.26708274  0.94732338    -0.24400
C2337       C  0.06444616  0.27178649  0.50255622    -0.11200
C2338       C  0.08666724  0.26584128  0.98819832     0.11400
C2339       C  0.08609585  0.24481734  0.97322817    -0.03000
C2340       C  0.06634163  0.23159082  0.97461921    -0.05700
C2341       C  0.04790964  0.23795306  0.99197023    -0.16500
C2342       C  0.04488220  0.25816872  0.50330230     0.02400
C2343       C  0.10772384  0.27947332  0.99065835     0.12400
C2344       C  0.10663133  0.23582081  0.95715542     0.63000
H2345       H  0.06552111  0.21551879  0.96322956     0.12400
C2346       C  0.02315856  0.26749747  0.51579533     0.55100
H2347       H  0.06434098  0.28846663  0.51241114     0.08200
C2348       C  0.11297879  0.29788989  0.97215530    -0.05600
C2349       C  0.13351066  0.30965465  0.97641170    -0.06300
C2350       C  0.14521352  0.30400961  0.50059713    -0.15900
C2351       C  0.14012897  0.28556977  0.51932171    -0.01500
C2352       C  0.11989098  0.27361187  0.51530375    -0.09100
C2353       C  0.09640216  0.30584738  0.94927981     0.65200
H2354       H  0.13772300  0.32402178  0.96285425     0.10700
C2355       C  0.15534398  0.27764348  0.54375293     0.63600
H2356       H  0.11566450  0.25987060  0.52993665     0.08000
F2357       F  0.02538284  0.28993733  0.52412384    -0.19400
F2358       F  0.01679021  0.25512283  0.53992568    -0.15700
F2359       F  0.00638362  0.26614778  0.49500542    -0.19200
F2360       F  0.12408536  0.23265896  0.97657292    -0.22500
F2361       F  0.11346992  0.25093133  0.93604447    -0.24000
F2362       F  0.10225513  0.21528303  0.94364667    -0.18000
F2363       F  0.14675695  0.28507982  0.57007265    -0.20500
F2364       F  0.17720278  0.28523558  0.54083623    -0.21700
F2365       F  0.15613412  0.25423158  0.54400031    -0.18800
F2366       F  0.10494140  0.32372169  0.93324178    -0.18900
F2367       F  0.07681822  0.31295838  0.96274509    -0.22800
F2368       F  0.09125838  0.28846990  0.93020225    -0.24400
C2369       C  0.08926876  0.06917204  0.49445962    -0.11200
C2370       C  0.09482765  0.09085802  0.97653659     0.11400
C2371       C  0.11730766  0.09434603  0.96712391    -0.03000
C2372       C  0.13248826  0.07611932  0.96837361    -0.05700
C2373       C  0.12610664  0.05510195  0.97988144    -0.16500
C2374       C  0.10517256  0.05162768  0.49649248     0.02400
C2375       C  0.07818926  0.10956270  0.97808666     0.12400
C2376       C  0.12539131  0.11734843  0.95667446     0.63000
H2377       H  0.14976974  0.07835459  0.96133921     0.12400
C2378       C  0.09854419  0.02931086  0.51039554     0.55100
H2379       H  0.07254638  0.06698002  0.50348235     0.08200
C2380       C  0.06102476  0.11246785  0.95712450    -0.05600
C2381       C  0.04522514  0.12995723  0.96128737    -0.06300
C2382       C  0.04577498  0.14418971  0.98596772    -0.15900
C2383       C  0.06243313  0.14145239  0.50729117    -0.01500
C2384       C  0.07838815  0.12404013  0.50448338    -0.09100
C2385       C  0.05921035  0.09691108  0.93080653     0.65200
H2386       H  0.03189939  0.13226059  0.94553157     0.10700
C2387       C  0.06543636  0.15880666  0.53154029     0.63600
H2388       H  0.09191999  0.12256617  0.52013974     0.08000
F2389       F  0.07583956  0.02855900  0.51722373    -0.19400
F2390       F  0.11058332  0.02624671  0.53579369    -0.15700
F2391       F  0.10303757  0.01169000  0.49140077    -0.19200
F2392       F  0.12383186  0.13296569  0.97905841    -0.22500
F2393       F  0.11236636  0.12451660  0.93361690    -0.24000
F2394       F  0.14759939  0.11675587  0.94749500    -0.18000
F2395       F  0.04887909  0.15595812  0.55240830    -0.20500
F2396       F  0.06430569  0.18044575  0.52025994    -0.21700
F2397       F  0.08607391  0.15667923  0.54522873    -0.18800
F2398       F  0.04167346  0.10302865  0.91267484    -0.18900
F2399       F  0.05545331  0.07492739  0.93980416    -0.22800
F2400       F  0.07891659  0.09767428  0.91481137    -0.24400
C2401       C  0.72192912  0.88764000  0.98239309    -0.11200
C2402       C  0.71963531  0.90242246  0.50789371     0.11400
C2403       C  0.70192379  0.90376063  0.52840681    -0.03000
C2404       C  0.68544684  0.88657275  0.52863131    -0.05700
C2405       C  0.68787012  0.87188221  0.00433767    -0.16500
C2406       C  0.70447917  0.87141657  0.98188089     0.02400
C2407       C  0.73775776  0.91982788  0.50623726     0.12400
C2408       C  0.69999911  0.92370284  0.54925178     0.63000
H2409       H  0.67161192  0.88794832  0.54348967     0.12400
C2410       C  0.70386954  0.85428303  0.95707128     0.55100
H2411       H  0.73471554  0.88771398  0.96556235     0.08200
C2412       C  0.75913522  0.91645653  0.51906331    -0.05600
C2413       C  0.77553313  0.93362933  0.51654734    -0.06300
C2414       C  0.77435469  0.95598858  0.99847560    -0.15900
C2415       C  0.75280560  0.95959963  0.98621851    -0.01500
C2416       C  0.73657206  0.94225525  0.98820534    -0.09100
C2417       C  0.76459378  0.89469946  0.53504485     0.65200
H2418       H  0.79200430  0.93139163  0.52618826     0.10700
C2419       C  0.74677530  0.98191136  0.97199304     0.63600
H2420       H  0.71992543  0.94463438  0.97914406     0.08000
F2421       F  0.72229391  0.85643239  0.93877253    -0.19400
F2422       F  0.68480146  0.85722912  0.94038333    -0.15700
F2423       F  0.70403536  0.83263959  0.96804060    -0.19200
F2424       F  0.69676064  0.94338710  0.53367157    -0.22500
F2425       F  0.71943387  0.92579326  0.56555763    -0.24000
F2426       F  0.68206469  0.92124124  0.56828152    -0.18000
F2427       F  0.75981600  0.98512585  0.94740418    -0.20500
F2428       F  0.75053610  0.99951152  0.99132763    -0.21700
F2429       F  0.72438301  0.98254079  0.96371461    -0.18800
F2430       F  0.78584795  0.89537397  0.54734576    -0.18900
F2431       F  0.76381223  0.87663844  0.51584703    -0.22800
F2432       F  0.74915549  0.89109475  0.55710820    -0.24400
C2433       C  0.75044833  0.07932460  0.51514706    -0.11200
C2434       C  0.75231984  0.09304202  0.98891850     0.11400
C2435       C  0.76682557  0.08687325  0.96587237    -0.03000
C2436       C  0.78065944  0.06779011  0.96928680    -0.05700
C2437       C  0.78073929  0.05489510  0.99508371    -0.16500
C2438       C  0.76430594  0.06029205  0.51927753     0.02400
C2439       C  0.73632648  0.11223800  0.98665739     0.12400
C2440       C  0.76777216  0.10051871  0.93792078     0.63000
H2441       H  0.79182535  0.06298543  0.95169523     0.12400
C2442       C  0.76474578  0.04923654  0.54909924     0.55100
H2443       H  0.74056226  0.08598659  0.53304472     0.08200
C2444       C  0.71319120  0.10869672  0.98091271    -0.05600
C2445       C  0.69856593  0.12736534  0.98182029    -0.06300
C2446       C  0.70541455  0.14848379  0.48857096    -0.15900
C2447       C  0.72900412  0.15108858  0.49213329    -0.01500
C2448       C  0.74278361  0.13174339  0.49044282    -0.09100
C2449       C  0.70386016  0.08512955  0.97512947     0.65200
H2450       H  0.68064222  0.12469710  0.97923158     0.10700
C2451       C  0.73943038  0.17374811  0.49995312     0.63600
H2452       H  0.76077633  0.13320047  0.49380371     0.08000
F2453       F  0.74940074  0.05895852  0.56807902    -0.19400
F2454       F  0.78589444  0.05166214  0.56130612    -0.15700
F2455       F  0.75935403  0.02651891  0.54658968    -0.19200
F2456       F  0.77514816  0.12224569  0.94395669    -0.22500
F2457       F  0.74664350  0.10155304  0.92543506    -0.24000
F2458       F  0.78234329  0.09108501  0.91772738    -0.18000
F2459       F  0.76244635  0.17219654  0.50422668    -0.20500
F2460       F  0.72990915  0.18169035  0.52546323    -0.21700
F2461       F  0.73580196  0.18903546  0.47781746    -0.18800
F2462       F  0.68142398  0.08571386  0.96706997    -0.18900
F2463       F  0.70561748  0.07217475  0.00000071    -0.22800
F2464       F  0.71576259  0.07480115  0.95289651    -0.24400
C2465       C  0.91610897  0.12353864  0.98001508    -0.11200
C2466       C  0.91846243  0.10258171  0.49591147     0.11400
C2467       C  0.93767277  0.10308909  0.51408957    -0.03000
C2468       C  0.95212159  0.12204689  0.51297317    -0.05700
C2469       C  0.95066030  0.14232943  0.99547187    -0.16500
C2470       C  0.93088486  0.14215837  0.97805524     0.02400
C2471       C  0.90176106  0.08369073  0.49674558     0.12400
C2472       C  0.94318811  0.08340311  0.53398474     0.63000
H2473       H  0.96687633  0.12265407  0.52677897     0.12400
C2474       C  0.92524878  0.16131517  0.95736238     0.55100
H2475       H  0.90084296  0.12305671  0.96715169     0.08200
C2476       C  0.88162744  0.08527017  0.51318139    -0.05600
C2477       C  0.86637452  0.06697044  0.51265843    -0.06300
C2478       C  0.87318549  0.04974371  0.99531923    -0.15900
C2479       C  0.89220391  0.04984892  0.97657159    -0.01500
C2480       C  0.90758030  0.06801494  0.97850454    -0.09100
C2481       C  0.87609731  0.10639671  0.53073690     0.65200
H2482       H  0.85085945  0.06792280  0.52502328     0.10700
C2483       C  0.89649419  0.03085601  0.95492480     0.63600
H2484       H  0.92215637  0.06859182  0.96432565     0.08000
F2485       F  0.90383680  0.15900737  0.94581214    -0.19400
F2486       F  0.94038675  0.16142232  0.93447696    -0.15700
F2487       F  0.92620703  0.18185762  0.97178007    -0.19200
F2488       F  0.94758454  0.06435614  0.51738272    -0.22500
F2489       F  0.92528346  0.07891999  0.55234512    -0.24000
F2490       F  0.96190814  0.08784171  0.55102896    -0.18000
F2491       F  0.88034767  0.03127832  0.93328766    -0.20500
F2492       F  0.89574247  0.01019349  0.96895962    -0.21700
F2493       F  0.91739079  0.03289801  0.94177193    -0.18800
F2494       F  0.85626721  0.10397058  0.54631142    -0.18900
F2495       F  0.87368953  0.12460821  0.51222873    -0.22800
F2496       F  0.89315996  0.11103907  0.55031592    -0.24400
C2497       C  0.87317809  0.74184391  0.51110333    -0.11200
C2498       C  0.88859962  0.73507200  0.98931553     0.11400
C2499       C  0.88625527  0.71389962  0.97507183    -0.03000
C2500       C  0.86552292  0.70232728  0.97718027    -0.05700
C2501       C  0.84885955  0.71060102  0.49667184    -0.16500
C2502       C  0.85249756  0.73053045  0.51348274     0.02400
C2503       C  0.91004842  0.74802764  0.98958683     0.12400
C2504       C  0.90589816  0.70307425  0.95910760     0.63000
H2505       H  0.86349814  0.68583554  0.96710847     0.12400
C2506       C  0.83555190  0.74061281  0.53459965     0.55100
H2507       H  0.87623003  0.75685231  0.52422301     0.08200
C2508       C  0.91388130  0.76646996  0.97068479    -0.05600
C2509       C  0.93399647  0.77887747  0.97358500    -0.06300
C2510       C  0.95106479  0.77385299  0.49360761    -0.15900
C2511       C  0.94928117  0.75398239  0.51062782    -0.01500
C2512       C  0.92928352  0.74111673  0.50905076    -0.09100
C2513       C  0.89655027  0.77338769  0.94810018     0.65200
H2514       H  0.93717673  0.79308678  0.95931913     0.10700
C2515       C  0.96852544  0.74614036  0.52972450     0.63600
H2516       H  0.92734016  0.72602350  0.52212930     0.08000
F2517       F  0.83242064  0.76322484  0.52807003    -0.19400
F2518       F  0.84385297  0.73901593  0.56262898    -0.15700
F2519       F  0.81476549  0.73021136  0.53357006    -0.19200
F2520       F  0.92356917  0.69983506  0.97817632    -0.22500
F2521       F  0.91303977  0.71685516  0.93669099    -0.24000
F2522       F  0.90012761  0.68223550  0.94736695    -0.18000
F2523       F  0.97191732  0.76142742  0.55216204    -0.20500
F2524       F  0.98796009  0.74442995  0.51323826    -0.21700
F2525       F  0.96420632  0.72517925  0.54191961    -0.18800
F2526       F  0.90368074  0.79185030  0.93202823    -0.18900
F2527       F  0.87659333  0.77915219  0.96170101    -0.22800
F2528       F  0.89254682  0.75571670  0.92901284    -0.24400
C2529       C  0.07454647  0.74479771  0.52627622    -0.11200
C2530       C  0.08513925  0.73690777  0.00643768     0.11400
C2531       C  0.07644070  0.74395499  0.97933538    -0.03000
C2532       C  0.05910029  0.76020108  0.97898419    -0.05700
C2533       C  0.04921038  0.76858697  0.00480454    -0.16500
C2534       C  0.05642438  0.76008509  0.52620677     0.02400
C2535       C  0.10446708  0.72102024  0.00879379     0.12400
C2536       C  0.08495060  0.73372857  0.95100381     0.63000
H2537       H  0.05298956  0.76626318  0.95826619     0.12400
C2538       C  0.04429339  0.76447736  0.55489121     0.55100
H2539       H  0.08021837  0.73734045  0.54646881     0.08200
C2540       C  0.12694836  0.72866757  0.01232480    -0.05600
C2541       C  0.14442507  0.71254225  0.01350971    -0.06300
C2542       C  0.13994781  0.68920853  0.01183196    -0.15900
C2543       C  0.11600624  0.68252518  0.50488240    -0.01500
C2544       C  0.09937159  0.69918734  0.50213422    -0.09100
C2545       C  0.13234188  0.75375741  0.01451001     0.65200
H2546       H  0.16181437  0.71807867  0.01449868     0.10700
C2547       C  0.10768784  0.65814798  0.50563742     0.63600
H2548       H  0.08191421  0.69412345  0.49950036     0.08000
F2549       F  0.05165712  0.75028050  0.57679540    -0.19400
F2550       F  0.02145884  0.76068673  0.55157210    -0.15700
F2551       F  0.04808171  0.78649709  0.56398251    -0.19200
F2552       F  0.08027275  0.71078776  0.95062372    -0.22500
F2553       F  0.10793294  0.73685239  0.94844156    -0.24000
F2554       F  0.07477345  0.74335275  0.92697547    -0.18000
F2555       F  0.09149704  0.65607412  0.52716928    -0.20500
F2556       F  0.12430760  0.64256612  0.51153638    -0.21700
F2557       F  0.09802135  0.65271455  0.47913382    -0.18800
F2558       F  0.15523899  0.75767216  0.01721145    -0.18900
F2559       F  0.12174733  0.76288459  0.03864530    -0.22800
F2560       F  0.12491236  0.76482811  0.98989697    -0.24400
C2561       C  0.88367727  0.91492156  0.97989174    -0.11200
C2562       C  0.90072595  0.91605735  0.49860054     0.11400
C2563       C  0.90367970  0.93617593  0.51503373    -0.03000
C2564       C  0.88634473  0.95238135  0.51506037    -0.05700
C2565       C  0.86930192  0.95130883  0.99639195    -0.16500
C2566       C  0.86681592  0.93158380  0.97890015     0.02400
C2567       C  0.91842766  0.89843900  0.49664828     0.12400
C2568       C  0.92531097  0.94077346  0.53169565     0.63000
H2569       H  0.88824492  0.96789641  0.52746721     0.12400
C2570       C  0.84632520  0.92780489  0.95970327     0.55100
H2571       H  0.88238295  0.89993419  0.96633265     0.08200
C2572       C  0.91800611  0.87884042  0.51420754    -0.05600
C2573       C  0.93561386  0.86314438  0.51135158    -0.06300
C2574       C  0.95303879  0.86602332  0.49091121    -0.15900
C2575       C  0.95648404  0.88664731  0.97777535    -0.01500
C2576       C  0.93901957  0.90267289  0.97936222    -0.09100
C2577       C  0.89891209  0.87437194  0.53552432     0.65200
H2578       H  0.93581244  0.84824352  0.52500431     0.10700
C2579       C  0.97744170  0.89180843  0.96002748     0.63600
H2580       H  0.94018405  0.91827131  0.96714059     0.08000
F2581       F  0.84565294  0.90604209  0.94843381    -0.19400
F2582       F  0.84679707  0.94272372  0.93661230    -0.15700
F2583       F  0.82685628  0.93108711  0.97569773    -0.19200
F2584       F  0.94326973  0.94153807  0.51254794    -0.22500
F2585       F  0.92900868  0.92385472  0.55177880    -0.24000
F2586       F  0.92456726  0.96120946  0.54651128    -0.18000
F2587       F  0.97889419  0.87695000  0.93679350    -0.20500
F2588       F  0.99637723  0.88967691  0.97727898    -0.21700
F2589       F  0.97718777  0.91360697  0.94909789    -0.18800
F2590       F  0.90198370  0.85439735  0.55065131    -0.18900
F2591       F  0.87877190  0.87273070  0.52061617    -0.22800
F2592       F  0.89746512  0.89179989  0.55556849    -0.24400
C2593       C  0.11787527  0.91952678  0.49877597    -0.11200
C2594       C  0.09881485  0.92002727  0.98604587     0.11400
C2595       C  0.09367361  0.94016718  0.97085029    -0.03000
C2596       C  0.11001531  0.95751452  0.96964625    -0.05700
C2597       C  0.13043771  0.95718675  0.48476382    -0.16500
C2598       C  0.13420846  0.93676246  0.50019066     0.02400
C2599       C  0.08241656  0.90115036  0.98909389     0.12400
C2600       C  0.07066081  0.94369942  0.95724778     0.63000
H2601       H  0.10658831  0.97291008  0.95780018     0.12400
C2602       C  0.15552235  0.93289770  0.51767680     0.55100
H2603       H  0.12033547  0.90382571  0.51042111     0.08200
C2604       C  0.08234383  0.88227512  0.97010003    -0.05600
C2605       C  0.06602303  0.86528352  0.97428773    -0.06300
C2606       C  0.05055656  0.86600241  0.99756729    -0.15900
C2607       C  0.04892168  0.88719872  0.51090095    -0.01500
C2608       C  0.06494776  0.90453860  0.50701424    -0.09100
C2609       C  0.09979656  0.87979439  0.94605893     0.65200
H2610       H  0.06542349  0.85101583  0.95944166     0.10700
C2611       C  0.03192220  0.88928269  0.53551668     0.63600
H2612       H  0.06533065  0.91892551  0.52169606     0.08000
F2613       F  0.15680403  0.91098476  0.52809546    -0.19400
F2614       F  0.15612514  0.94742010  0.54132529    -0.15700
F2615       F  0.17412447  0.93665475  0.50028652    -0.19200
F2616       F  0.05432103  0.94307916  0.97869861    -0.22500
F2617       F  0.06618662  0.92691054  0.93704367    -0.24000
F2618       F  0.06922680  0.96437305  0.94331336    -0.18000
F2619       F  0.03576300  0.87261728  0.55594735    -0.20500
F2620       F  0.01029054  0.88717823  0.52469054    -0.21700
F2621       F  0.03344504  0.90999969  0.54957965    -0.18800
F2622       F  0.09649770  0.86025085  0.92985825    -0.18900
F2623       F  0.12106955  0.87885769  0.95815136    -0.22800
F2624       F  0.09882748  0.89798171  0.92732127    -0.24400
loop_ 
_geom_bond_atom_site_label_1 
_geom_bond_atom_site_label_2 
_geom_bond_distance 
_geom_bond_site_symmetry_2 
_ccdc_geom_bond_type 
O1           Ni9   1.929       .  S
O1         C1323   1.283   1_554  A
O2           Ni9   1.926   1_655  S
O2           C12   1.282   1_554  A
O3           Ni9   1.911       .  S
O3         C1325   1.277       .  A
O4           Ni9   1.909   1_655  S
O4           C14   1.279   1_554  A
O5          Ni10   1.931   1_655  S
O5         C1326   1.284       .  A
O6          Ni10   1.934       .  S
O6           C13   1.286       .  A
O7          Ni10   1.912   1_655  S
O7         C1324   1.280       .  A
O8          Ni10   1.915       .  S
O8           C11   1.280       .  A
Ni9       Ni1322   2.381   1_554  S
Ni10      Ni1321   2.382       .  S
C11        O1313   1.282       .  A
C11        C1294   1.490       .  S
C12        O1319   1.280       .  A
C12        C1198   1.485       .  S
C13        O1315   1.276       .  A
C13        C1221   1.502       .  S
C14        O1317   1.284       .  A
C14        C1262   1.482       .  S
O15         Ni23   1.924       .  S
O15        C1337   1.282   1_554  A
O16         Ni23   1.923   1_565  S
O16        C1338   1.283   1_554  A
O17         Ni23   1.915       .  S
O17        C1339   1.281   1_554  A
O18         Ni23   1.919   1_565  S
O18        C1340   1.280   1_554  A
O19         Ni24   1.926       .  S
O19          C28   1.282       .  A
O20         Ni24   1.928   1_545  S
O20          C27   1.283       .  A
O21         Ni24   1.912       .  S
O21          C26   1.279       .  A
O22         Ni24   1.911   1_545  S
O22          C25   1.281       .  A
Ni23      Ni1336   2.384   1_554  S
Ni24      Ni1335   2.384   1_565  S
C25        O1327   1.282       .  A
C25        C1125   1.498       .  S
C26        O1328   1.283       .  A
C26        C1253   1.482       .  S
C27        O1329   1.281       .  A
C27        C1166   1.486       .  S
C28        O1330   1.281       .  A
C28        C1102   1.482       .  S
O29         Ni37   1.925       .  S
O29        C1351   1.283   1_554  A
O30         Ni37   1.929   1_455  S
O30        C1352   1.283   1_554  A
O31         Ni37   1.920       .  S
O31        C1353   1.280       .  A
O32         Ni37   1.914   1_455  S
O32        C1354   1.279   1_554  A
O33         Ni38   1.932   1_455  S
O33          C42   1.285       .  A
O34         Ni38   1.935       .  S
O34          C41   1.285       .  A
O35         Ni38   1.920   1_455  S
O35          C40   1.280       .  A
O36         Ni38   1.922       .  S
O36          C39   1.280       .  A
Ni37      Ni1350   2.383   1_554  S
Ni38      Ni1349   2.384       .  S
C39        O1341   1.284       .  A
C39        C1157   1.493       .  S
C40        O1342   1.284       .  A
C40        C1029   1.484       .  S
C41        O1343   1.278       .  A
C41         C997   1.487       .  S
C42        O1344   1.278       .  A
C42        C1070   1.492       .  S
O43         Ni51   1.913   1_565  S
O43          C53   1.279   1_554  A
O44         Ni51   1.919       .  S
O44        C1366   1.281   1_554  A
O45         Ni51   1.914   1_565  S
O45          C55   1.279   1_554  A
O46         Ni51   1.916       .  S
O46        C1368   1.279   1_554  A
O47         Ni52   1.933       .  S
O47          C56   1.285       .  A
O48         Ni52   1.931   1_565  S
O48        C1367   1.284       .  A
O49         Ni52   1.920       .  S
O49          C54   1.281       .  A
O50         Ni52   1.920   1_565  S
O50        C1365   1.282       .  A
Ni51      Ni1364   2.385   1_554  S
Ni52      Ni1363   2.384       .  S
C53        O1362   1.282       .  A
C53         C933   1.485       .  S
C54        O1356   1.281       .  A
C54        C1061   1.480       .  S
C55        O1360   1.284       .  A
C55        C1285   1.484       .  S
C56        O1358   1.279       .  A
C56         C974   1.502       .  S
C57          C58   1.540       .  S
C57          C63   1.537       .  S
C57          C61   1.529       .  S
C57         C910   1.545       .  S
C58          H65   1.084       .  S
C58          C59   1.361       .  D
C59        C1372   1.549       .  S
C59        C1230   1.489       .  S
C60          C64   1.559       .  S
C60        C1371   1.550       .  S
C60        C1374   1.549       .  S
C60          H66   1.101       .  S
C61          H67   1.087       .  S
C61          C62   1.366       .  D
C62        C1372   1.551       .  S
C62         C846   1.499       .  S
C63          H68   1.084       .  S
C63        C1376   1.372       .  D
C64        C1375   1.374       .  D
C64         C869   1.515       .  S
C69          C70   1.532       .  S
C69          C75   1.547       .  S
C69          C73   1.537       .  S
C69         C814   1.546       .  S
C70          H77   1.083       .  S
C70          C71   1.361       .  D
C71        C1384   1.555   1_554  S
C71         C942   1.485       .  S
C72          C76   1.557       .  S
C72        C1383   1.557       .  S
C72        C1386   1.541       .  S
C72          H78   1.107       .  S
C73          H79   1.086       .  S
C73          C74   1.366       .  D
C74        C1384   1.541   1_554  S
C74         C837   1.492   1_554  S
C75          H80   1.084   1_554  S
C75        C1388   1.371   1_554  D
C76        C1387   1.371       .  D
C76         C773   1.513       .  S
N81          C86   1.356       .  A
N81          C85   1.353       .  A
N81         H113   1.040       .  S
N82          C89   1.349       .  A
N82          C90   1.353       .  A
N83          C88   1.351       .  A
N83          C87   1.356       .  A
N83         H114   1.040       .  S
N84          C91   1.354       .  A
N84          C92   1.351       .  A
C85          C93   1.388       .  A
C85         C101   1.417       .  A
C86         C102   1.417       .  A
C86          C94   1.386       .  A
C87          C95   1.386       .  A
C87         C104   1.419       .  A
C88         C103   1.415       .  A
C88          C96   1.388       .  A
C89         C101   1.413       .  A
C89          C97   1.387       .  A
C90         C104   1.415       .  A
C90          C98   1.386       .  A
C91          C99   1.386       .  A
C91         C102   1.415       .  A
C92         C100   1.387       .  A
C92         C103   1.414       .  A
C93          C94   1.377       .  A
C93         H105   1.082       .  S
C94         H106   1.082       .  S
C95          C96   1.376       .  A
C95         H107   1.082       .  S
C96         H108   1.082       .  S
C97          C98   1.376       .  A
C97         H109   1.082       .  S
C98         H110   1.082       .  S
C99         C100   1.373       .  A
C99         H111   1.082       .  S
C100        H112   1.082       .  S
C101        C805   1.486       .  S
C102        C709   1.503       .  S
C103        C750   1.484       .  S
C104        C782   1.503       .  S
C115        C116   1.524       .  S
C115        C121   1.529       .  S
C115        C119   1.546       .  S
C115        C741   1.538       .  S
C116        H123   1.087       .  S
C116        C117   1.359       .  D
C117       C1430   1.561       .  S
C117       C1093   1.498       .  S
C118        C122   1.553       .  S
C118       C1429   1.559       .  S
C118       C1432   1.552       .  S
C118        H124   1.107       .  S
C119        H125   1.080       .  S
C119        C120   1.374       .  D
C120       C1430   1.554       .  S
C120        C677   1.513       .  S
C121        H126   1.079       .  S
C121       C1434   1.362       .  D
C122       C1433   1.362       .  D
C122        C718   1.502       .  S
C127        C128   1.527       .  S
C127        C133   1.540       .  S
C127        C131   1.538       .  S
C127        C645   1.550       .  S
C128        H135   1.084       .  S
C128        C129   1.362       .  D
C129       C1442   1.552   1_554  S
C129       C1189   1.479   1_554  S
C130        C134   1.544       .  S
C130       C1441   1.556       .  S
C130       C1444   1.558       .  S
C130        H136   1.092       .  S
C131        H137   1.083       .  S
C131        C132   1.386       .  D
C132       C1442   1.559   1_554  S
C132        C686   1.539   1_554  S
C133        H138   1.083       .  S
C133       C1446   1.356   1_554  D
C134       C1445   1.358       .  D
C134        C613   1.500       .  S
C139        C140   1.532       .  S
C139        C145   1.546       .  S
C139        C143   1.528       .  S
C139        C581   1.547       .  S
C140        H147   1.085       .  S
C140        C141   1.367       .  D
C141       C1454   1.559       .  S
C141        C965   1.492       .  S
C142        C146   1.554       .  S
C142       C1453   1.559   1_554  S
C142       C1456   1.549   1_554  S
C142        H148   1.102       .  S
C143        H149   1.084       .  S
C143        C144   1.365       .  D
C144       C1454   1.551       .  S
C144        C526   1.507       .  S
C145        H150   1.084       .  S
C145       C1458   1.370       .  D
C146       C1457   1.372       .  D
C146        C549   1.517       .  S
C151        C152   1.538       .  S
C151        C157   1.541       .  S
C151        C155   1.527       .  S
C151        C485   1.552       .  S
C152        H159   1.081       .  S
C152        C153   1.368       .  D
C153       C1466   1.551   1_554  S
C153       C1038   1.491   1_554  S
C154        C158   1.543       .  S
C154       C1465   1.553       .  S
C154       C1468   1.559       .  S
C154        H160   1.098       .  S
C155        H161   1.085       .  S
C155        C156   1.378       .  D
C156       C1466   1.557   1_554  S
C156        C517   1.522   1_554  S
C157        H162   1.086       .  S
C157       C1470   1.362   1_554  D
C158       C1469   1.357       .  D
C158        C453   1.491       .  S
N163        C168   1.355       .  A
N163        C167   1.351       .  A
N163        H195   1.039       .  S
N164        C171   1.354       .  A
N164        C172   1.354       .  A
N165        C170   1.355       .  A
N165        C169   1.357       .  A
N165        H196   1.037       .  S
N166        C173   1.352       .  A
N166        C174   1.349       .  A
C167        C175   1.387       .  A
C167        C183   1.413       .  A
C168        C184   1.416       .  A
C168        C176   1.387       .  A
C169        C177   1.389       .  A
C169        C186   1.424       .  A
C170        C185   1.419       .  A
C170        C178   1.386       .  A
C171        C183   1.417       .  A
C171        C179   1.385       .  A
C172        C186   1.421       .  A
C172        C180   1.387       .  A
C173        C181   1.386       .  A
C173        C184   1.414       .  A
C174        C182   1.386       .  A
C174        C185   1.412       .  A
C175        C176   1.378       .  A
C175        H187   1.083       .  S
C176        H188   1.082       .  S
C177        C178   1.371       .  A
C177        H189   1.080       .  S
C178        H190   1.082       .  S
C179        C180   1.374       .  A
C179        H191   1.082       .  S
C180        H192   1.081       .  S
C181        C182   1.375       .  A
C181        H193   1.082       .  S
C182        H194   1.082       .  S
C183        C494   1.490       .  S
C184        C878   1.499       .  S
C185        C901   1.489       .  S
C186        C462   1.501       .  S
N197        C202   1.353       .  A
N197        C201   1.354       .  A
N197        H229   1.040       .  S
N198        C205   1.356       .  A
N198        C206   1.354       .  A
N199        C204   1.357       .  A
N199        C203   1.354       .  A
N199        H230   1.039       .  S
N200        C207   1.351       .  A
N200        C208   1.353       .  A
C201        C209   1.386       .  A
C201        C217   1.416       .  A
C202        C218   1.416       .  A
C202        C210   1.388       .  A
C203        C211   1.390       .  A
C203        C220   1.423       .  A
C204        C219   1.419       .  A
C204        C212   1.385       .  A
C205        C217   1.419       .  A
C205        C213   1.385       .  A
C206        C220   1.422       .  A
C206        C214   1.388       .  A
C207        C215   1.387       .  A
C207        C218   1.414       .  A
C208        C216   1.385       .  A
C208        C219   1.415       .  A
C209        C210   1.375       .  A
C209        H221   1.083       .  S
C210        H222   1.082       .  S
C211        C212   1.374       .  A
C211        H223   1.080       .  S
C212        H224   1.083       .  S
C213        C214   1.374       .  A
C213        H225   1.082       .  S
C214        H226   1.082       .  S
C215        C216   1.374       .  A
C215        H227   1.082       .  S
C216        H228   1.082       .  S
C217        C389   1.503       .  S
C218        C590   1.488       .  S
C219        C558   1.502       .  S
C220        C421   1.496       .  S
C231        C232   1.526       .  S
C231        C237   1.533   1_554  S
C231        C235   1.544       .  S
C231        C430   1.541       .  S
C232        H239   1.087       .  S
C232        C233   1.360   1_554  D
C233       C1546   1.551       .  S
C233       C1134   1.494       .  S
C234        C238   1.558       .  S
C234       C1545   1.551       .  S
C234       C1548   1.551       .  S
C234        H240   1.097       .  S
C235        H241   1.085       .  S
C235        C236   1.370   1_554  D
C236       C1546   1.551       .  S
C236        C366   1.505       .  S
C237        H242   1.083       .  S
C237       C1550   1.370       .  D
C238       C1549   1.370       .  D
C238        C398   1.512       .  S
C243        C244   1.532       .  S
C243        C249   1.532       .  S
C243        C247   1.540       .  S
C243        C334   1.540       .  S
C244        H251   1.087       .  S
C244        C245   1.361       .  D
C245       C1558   1.539       .  S
C245       C1006   1.485       .  S
C246        C250   1.555       .  S
C246       C1557   1.544       .  S
C246       C1560   1.553   1_554  S
C246        H252   1.104       .  S
C247        H253   1.084       .  S
C247        C248   1.366       .  D
C248       C1558   1.549       .  S
C248        C357   1.484       .  S
C249        H254   1.084       .  S
C249       C1562   1.373       .  D
C250       C1561   1.369       .  D
C250        C293   1.511       .  S
N255        C260   1.357       .  A
N255        C259   1.354       .  A
N255        H287   1.033       .  S
N256        C263   1.350       .  A
N256        C264   1.353       .  A
N257        C262   1.352       .  A
N257        C261   1.357       .  A
N257        H288   1.035       .  S
N258        C265   1.356       .  A
N258        C266   1.354       .  A
C259        C267   1.386       .  A
C259        C275   1.421       .  A
C260        C276   1.426       .  A
C260        C268   1.389       .  A
C261        C269   1.386       .  A
C261        C278   1.420       .  A
C262        C277   1.420       .  A
C262        C270   1.389       .  A
C263        C275   1.414       .  A
C263        C271   1.387       .  A
C264        C278   1.414       .  A
C264        C272   1.386       .  A
C265        C273   1.387       .  A
C265        C276   1.424       .  A
C266        C274   1.386       .  A
C266        C277   1.420       .  A
C267        C268   1.374       .  A
C267        H279   1.082       .  S
C268        H280   1.080       .  S
C269        C270   1.376       .  A
C269        H281   1.082       .  S
C270        H282   1.082       .  S
C271        C272   1.373       .  A
C271        H283   1.082       .  S
C272        H284   1.082       .  S
C273        C274   1.372       .  A
C273        H285   1.082       .  S
C274        H286   1.082       .  S
C275        C325   1.489       .  S
C276        C622   1.505       .  S
C277        C654   1.489       .  S
C278        C302   1.499       .  S
C289        C290   1.406       .  A
C289        C294   1.418       .  A
C289        H299   1.083       .  S
C290        C295   1.494       .  S
C290        C291   1.413       .  A
C291        C296   1.523       .  S
C291        C292   1.402       .  A
C292        C293   1.410       .  A
C292        H297   1.080       .  S
C293        C294   1.423       .  A
C294        C298   1.515       .  S
C295        C300   1.419       .  A
C295        C304   1.403       .  A
C296        F312   1.381       .  S
C296        F313   1.383       .  S
C296        F314   1.385       .  S
C298        F309   1.385       .  S
C298        F310   1.381       .  S
C298        F311   1.377       .  S
C300        C305   1.519       .  S
C300        C301   1.412       .  A
C301        C302   1.405       .  A
C301        H306   1.083       .  S
C302        C303   1.418       .  A
C303        C307   1.519       .  S
C303        C304   1.408       .  A
C304        H308   1.083       .  S
C305        F318   1.385       .  S
C305        F319   1.382       .  S
C305        F320   1.383       .  S
C307        F315   1.380       .  S
C307        F316   1.383       .  S
C307        F317   1.385       .  S
C321        C322   1.403       .  A
C321        C326   1.406       .  A
C321        H331   1.083       .  S
C322        C327   1.480       .  S
C322        C323   1.416       .  A
C323        C328   1.520       .  S
C323        C324   1.406       .  A
C324        C325   1.402       .  A
C324        H329   1.083       .  S
C325        C326   1.416       .  A
C326        C330   1.519       .  S
C327        C332   1.410       .  A
C327        C336   1.394       .  A
C328        F344   1.383       .  S
C328        F345   1.380       .  S
C328        F346   1.384       .  S
C330        F341   1.381       .  S
C330        F342   1.385       .  S
C330        F343   1.383       .  S
C332        C337   1.521       .  S
C332        C333   1.409       .  A
C333        C334   1.416       .  A
C333        H338   1.078       .  S
C334        C335   1.435       .  A
C335        C339   1.525       .  S
C335        C336   1.402       .  A
C336        H340   1.085       .  S
C337        F350   1.385       .  S
C337        F351   1.383       .  S
C337        F352   1.381       .  S
C339        F347   1.385       .  S
C339        F348   1.377       .  S
C339        F349   1.383       .  S
C353        C358   1.406       .  A
C353       C1666   1.401       .  A
C353        H363   1.085       .  S
C354        C359   1.487       .  S
C354        C355   1.419   1_554  A
C354       C1665   1.401       .  A
C355        C360   1.519       .  S
C355        C356   1.408       .  A
C356       C1669   1.404   1_556  A
C356        H361   1.084       .  S
C357        C358   1.421       .  A
C357       C1668   1.404       .  A
C358        C362   1.520       .  S
C359        C364   1.411       .  A
C359       C1680   1.402   1_554  A
C360        F376   1.383       .  S
C360        F377   1.382       .  S
C360        F378   1.383   1_556  S
C362        F373   1.384       .  S
C362        F374   1.383       .  S
C362        F375   1.381       .  S
C364        C369   1.519       .  S
C364        C365   1.406       .  A
C365        C366   1.412   1_554  A
C365        H370   1.082       .  S
C366       C1679   1.424       .  A
C367        C371   1.519       .  S
C367        C368   1.413       .  A
C367       C1678   1.423       .  A
C368       C1671   1.403       .  A
C368        H372   1.083       .  S
C369        F382   1.385       .  S
C369        F383   1.383       .  S
C369        F384   1.382       .  S
C371        F379   1.383       .  S
C371        F380   1.379       .  S
C371        F381   1.385       .  S
C385        C386   1.402       .  A
C385        C390   1.409       .  A
C385        H395   1.083       .  S
C386        C391   1.491       .  S
C386        C387   1.415       .  A
C387        C392   1.519       .  S
C387        C388   1.412       .  A
C388        C389   1.407       .  A
C388        H393   1.083       .  S
C389        C390   1.422       .  A
C390        C394   1.521       .  S
C391        C396   1.413       .  A
C391        C400   1.402       .  A
C392        F408   1.383       .  S
C392        F409   1.381       .  S
C392        F410   1.384       .  S
C394        F405   1.381       .  S
C394        F406   1.385       .  S
C394        F407   1.383       .  S
C396        C401   1.522       .  S
C396        C397   1.407       .  A
C397        C398   1.413       .  A
C397        H402   1.083       .  S
C398        C399   1.426       .  A
C399        C403   1.515       .  S
C399        C400   1.415       .  A
C400        H404   1.083       .  S
C401        F414   1.385       .  S
C401        F415   1.383       .  S
C401        F416   1.380       .  S
C403        F411   1.385       .  S
C403        F412   1.377       .  S
C403        F413   1.379       .  S
C417        C418   1.401       .  A
C417        C422   1.405       .  A
C417        H427   1.085       .  S
C418        C423   1.483       .  S
C418        C419   1.414       .  A
C419        C424   1.521       .  S
C419        C420   1.407       .  A
C420        C421   1.407       .  A
C420        H425   1.083       .  S
C421        C422   1.423       .  A
C422        C426   1.520       .  S
C423        C428   1.411       .  A
C423        C432   1.398       .  A
C424        F440   1.383       .  S
C424        F441   1.380       .  S
C424        F442   1.384       .  S
C426        F437   1.383       .  S
C426        F438   1.384       .  S
C426        F439   1.381       .  S
C428        C433   1.521       .  S
C428        C429   1.407       .  A
C429        C430   1.414       .  A
C429        H434   1.081       .  S
C430        C431   1.431       .  A
C431        C435   1.523       .  S
C431        C432   1.406       .  A
C432        H436   1.085       .  S
C433        F446   1.385       .  S
C433        F447   1.383       .  S
C433        F448   1.381       .  S
C435        F443   1.385       .  S
C435        F444   1.380       .  S
C435        F445   1.383       .  S
C449        C450   1.406       .  A
C449        C454   1.411       .  A
C449        H459   1.082       .  S
C450        C455   1.497       .  S
C450        C451   1.421       .  A
C451        C456   1.522       .  S
C451        C452   1.408       .  A
C452        C453   1.404       .  A
C452        H457   1.083       .  S
C453        C454   1.416       .  A
C454        C458   1.517       .  S
C455        C460   1.420       .  A
C455        C464   1.403       .  A
C456        F472   1.380       .  S
C456        F473   1.383       .  S
C456        F474   1.385       .  S
C458        F469   1.385       .  S
C458        F470   1.378       .  S
C458        F471   1.384       .  S
C460        C465   1.521       .  S
C460        C461   1.409       .  A
C461        C462   1.406       .  A
C461        H466   1.083       .  S
C462        C463   1.422       .  A
C463        C467   1.519       .  S
C463        C464   1.408       .  A
C464        H468   1.083       .  S
C465        F478   1.385       .  S
C465        F479   1.381       .  S
C465        F480   1.384       .  S
C467        F475   1.383       .  S
C467        F476   1.381       .  S
C467        F477   1.384       .  S
C481        C482   1.398       .  A
C481        C486   1.409       .  A
C481        H491   1.084       .  S
C482        C487   1.485       .  S
C482        C483   1.409       .  A
C483        C488   1.521       .  S
C483        C484   1.406       .  A
C484        C485   1.417       .  A
C484        H489   1.079       .  S
C485        C486   1.433       .  A
C486        C490   1.519       .  S
C487        C492   1.414       .  A
C487        C496   1.403       .  A
C488        F504   1.382       .  S
C488        F505   1.382       .  S
C488        F506   1.384       .  S
C490        F501   1.382       .  S
C490        F502   1.385       .  S
C490        F503   1.375       .  S
C492        C497   1.520       .  S
C492        C493   1.405       .  A
C493        C494   1.405       .  A
C493        H498   1.083       .  S
C494        C495   1.419       .  A
C495        C499   1.517       .  S
C495        C496   1.407       .  A
C496        H500   1.084       .  S
C497        F510   1.385       .  S
C497        F511   1.382       .  S
C497        F512   1.382       .  S
C499        F507   1.383       .  S
C499        F508   1.382       .  S
C499        F509   1.384       .  S
C513        C518   1.418       .  A
C513       C1826   1.401       .  A
C513        H523   1.082       .  S
C514        C519   1.495       .  S
C514        C515   1.414       .  A
C514       C1825   1.401   1_554  A
C515        C520   1.523       .  S
C515        C516   1.403       .  A
C516        C517   1.415   1_554  A
C516        H521   1.081       .  S
C517       C1830   1.434       .  A
C518        C522   1.520       .  S
C518       C1829   1.437       .  A
C519        C524   1.421       .  A
C519       C1840   1.400   1_554  A
C520        F536   1.381       .  S
C520        F537   1.383       .  S
C520        F538   1.385       .  S
C522        F533   1.385       .  S
C522        F534   1.380       .  S
C522        F535   1.376       .  S
C524        C529   1.520       .  S
C524        C525   1.412       .  A
C525       C1838   1.407       .  A
C525        H530   1.080       .  S
C526        C527   1.425       .  A
C526       C1837   1.408       .  A
C527        C531   1.521       .  S
C527        C528   1.404       .  A
C528       C1831   1.400       .  A
C528        H532   1.084       .  S
C529        F542   1.385       .  S
C529        F543   1.381       .  S
C529        F544   1.384       .  S
C531        F539   1.383       .  S
C531        F540   1.383       .  S
C531        F541   1.384       .  S
C545        C546   1.402       .  A
C545        C550   1.417       .  A
C545        H555   1.083       .  S
C546        C551   1.493       .  S
C546        C547   1.412       .  A
C547        C552   1.522       .  S
C547        C548   1.407       .  A
C548        C549   1.414       .  A
C548        H553   1.082       .  S
C549        C550   1.428       .  A
C550        C554   1.516       .  S
C551        C556   1.416       .  A
C551        C560   1.404       .  A
C552        F568   1.383       .  S
C552        F569   1.381       .  S
C552        F570   1.385       .  S
C554        F565   1.381       .  S
C554        F566   1.385       .  S
C554        F567   1.375       .  S
C556        C561   1.519       .  S
C556        C557   1.410       .  A
C557        C558   1.406       .  A
C557        H562   1.083       .  S
C558        C559   1.420       .  A
C559        C563   1.520       .  S
C559        C560   1.411       .  A
C560        H564   1.083       .  S
C561        F574   1.384       .  S
C561        F575   1.383       .  S
C561        F576   1.381       .  S
C563        F571   1.384       .  S
C563        F572   1.383       .  S
C563        F573   1.380       .  S
C577        C578   1.398       .  A
C577        C582   1.410       .  A
C577        H587   1.085       .  S
C578        C583   1.485       .  S
C578        C579   1.409       .  A
C579        C584   1.522       .  S
C579        C580   1.405       .  A
C580        C581   1.417       .  A
C580        H585   1.077       .  S
C581        C582   1.434       .  A
C582        C586   1.524       .  S
C583        C588   1.415       .  A
C583        C592   1.403       .  A
C584        F600   1.382       .  S
C584        F601   1.382       .  S
C584        F602   1.385       .  S
C586        F597   1.382       .  S
C586        F598   1.385       .  S
C586        F599   1.378       .  S
C588        C593   1.518       .  S
C588        C589   1.407       .  A
C589        C590   1.402       .  A
C589        H594   1.083       .  S
C590        C591   1.416       .  A
C591        C595   1.519       .  S
C591        C592   1.407       .  A
C592        H596   1.083       .  S
C593        F606   1.384       .  S
C593        F607   1.382       .  S
C593        F608   1.382       .  S
C595        F603   1.382       .  S
C595        F604   1.382       .  S
C595        F605   1.384       .  S
C609        C610   1.398       .  A
C609        C614   1.403       .  A
C609        H619   1.085       .  S
C610        C615   1.491       .  S
C610        C611   1.417       .  A
C611        C616   1.518       .  S
C611        C612   1.415       .  A
C612        C613   1.408       .  A
C612        H617   1.082       .  S
C613        C614   1.427       .  A
C614        C618   1.521       .  S
C615        C620   1.417       .  A
C615        C624   1.402       .  A
C616        F632   1.383       .  S
C616        F633   1.380       .  S
C616        F634   1.384       .  S
C618        F629   1.383       .  S
C618        F630   1.384       .  S
C618       F1943   1.383       .  S
C620        C625   1.521       .  S
C620        C621   1.411       .  A
C621        C622   1.408       .  A
C621        H626   1.083       .  S
C622        C623   1.424       .  A
C623        C627   1.520       .  S
C623        C624   1.408       .  A
C624        H628   1.085       .  S
C625        F638   1.384       .  S
C625        F639   1.383       .  S
C625        F640   1.380       .  S
C627        F635   1.384       .  S
C627        F636   1.381       .  S
C627        F637   1.383       .  S
F631       C1930   1.382       .  S
C641        C642   1.401       .  A
C641        C646   1.412       .  A
C641        H651   1.084       .  S
C642        C647   1.486       .  S
C642        C643   1.410       .  A
C643        C648   1.523       .  S
C643        C644   1.400       .  A
C644        C645   1.415       .  A
C644        H649   1.077       .  S
C645        C646   1.433       .  A
C646        C650   1.522       .  S
C647        C652   1.416       .  A
C647        C656   1.401       .  A
C648        F664   1.381       .  S
C648        F665   1.383       .  S
C648        F666   1.385       .  S
C650        F661   1.382       .  S
C650        F662   1.385       .  S
C650        F663   1.377       .  S
C652        C657   1.518       .  S
C652        C653   1.408       .  A
C653        C654   1.405       .  A
C653        H658   1.083       .  S
C654        C655   1.419       .  A
C655        C659   1.520       .  S
C655        C656   1.403       .  A
C656        H660   1.085       .  S
C657        F670   1.385       .  S
C657        F671   1.382       .  S
C657        F672   1.383       .  S
C659        F667   1.383       .  S
C659        F668   1.381       .  S
C659        F669   1.384       .  S
C673        C678   1.410       .  A
C673       C1986   1.401       .  A
C673        H683   1.084       .  S
C674        C679   1.498       .  S
C674        C675   1.417   1_556  A
C674       C1985   1.400       .  A
C675        C680   1.519       .  S
C675        C676   1.411       .  A
C676       C1989   1.410       .  A
C676        H681   1.080       .  S
C677        C678   1.429       .  A
C677       C1988   1.410       .  A
C678        C682   1.521       .  S
C679        C684   1.410   1_556  A
C679       C2000   1.398       .  A
C680        F696   1.382       .  S
C680        F697   1.383       .  S
C680        F698   1.385       .  S
C682        F693   1.385       .  S
C682        F694   1.383       .  S
C682        F695   1.383       .  S
C684        C689   1.521       .  S
C684        C685   1.408       .  A
C685        C686   1.419   1_554  A
C685        H690   1.078       .  S
C686       C1999   1.441       .  A
C687        C691   1.520       .  S
C687        C688   1.416       .  A
C687       C1998   1.439       .  A
C688       C1991   1.398       .  A
C688        H692   1.083       .  S
C689        F702   1.384       .  S
C689        F703   1.381       .  S
C689        F704   1.383       .  S
C691        F699   1.382       .  S
C691        F700   1.378       .  S
C691        F701   1.385       .  S
C705        C706   1.403       .  A
C705        C710   1.409       .  A
C705        H715   1.083       .  S
C706        C711   1.490       .  S
C706        C707   1.414       .  A
C707        C712   1.519       .  S
C707        C708   1.411       .  A
C708        C709   1.409       .  A
C708        H713   1.083       .  S
C709        C710   1.421       .  A
C710        C714   1.521       .  S
C711        C716   1.416       .  A
C711        C720   1.401       .  A
C712        F728   1.383       .  S
C712        F729   1.380       .  S
C712        F730   1.384       .  S
C714        F725   1.380       .  S
C714        F726   1.385       .  S
C714        F727   1.384       .  S
C716        C721   1.522       .  S
C716        C717   1.409       .  A
C717        C718   1.408       .  A
C717        H722   1.083       .  S
C718        C719   1.420       .  A
C719        C723   1.509       .  S
C719        C720   1.411       .  A
C720        H724   1.083       .  S
C721        F734   1.384       .  S
C721        F735   1.383       .  S
C721        F736   1.380       .  S
C723        F731   1.385       .  S
C723        F732   1.383       .  S
C723        F733   1.381       .  S
C737        C738   1.397       .  A
C737        C742   1.402       .  A
C737        H747   1.085       .  S
C738        C743   1.477       .  S
C738        C739   1.412       .  A
C739        C744   1.520       .  S
C739        C740   1.406       .  A
C740        C741   1.412       .  A
C740        H745   1.082       .  S
C741        C742   1.430       .  A
C742        C746   1.522       .  S
C743        C748   1.415       .  A
C743        C752   1.401       .  A
C744        F760   1.383       .  S
C744        F761   1.380       .  S
C744        F762   1.385       .  S
C746        F757   1.384       .  S
C746        F758   1.385       .  S
C746        F759   1.382       .  S
C748        C753   1.520       .  S
C748        C749   1.406       .  A
C749        C750   1.403       .  A
C749        H754   1.083       .  S
C750        C751   1.415       .  A
C751        C755   1.520       .  S
C751        C752   1.403       .  A
C752        H756   1.083       .  S
C753        F766   1.384       .  S
C753        F767   1.383       .  S
C753        F768   1.380       .  S
C755        F763   1.384       .  S
C755        F764   1.383       .  S
C755        F765   1.381       .  S
C769        C770   1.400       .  A
C769        C774   1.412       .  A
C769        H779   1.083       .  S
C770        C775   1.492       .  S
C770        C771   1.414       .  A
C771        C776   1.521       .  S
C771        C772   1.410       .  A
C772        C773   1.412       .  A
C772        H777   1.083       .  S
C773        C774   1.425       .  A
C774        C778   1.511       .  S
C775        C780   1.415       .  A
C775        C784   1.403       .  A
C776        F792   1.382       .  S
C776        F793   1.380       .  S
C776        F794   1.385       .  S
C778        F789   1.377       .  S
C778        F790   1.385       .  S
C778        F791   1.379       .  S
C780        C785   1.518       .  S
C780        C781   1.412       .  A
C781        C782   1.409       .  A
C781        H786   1.083       .  S
C782        C783   1.422       .  A
C783        C787   1.520       .  S
C783        C784   1.406       .  A
C784        H788   1.085       .  S
C785        F798   1.385       .  S
C785        F799   1.383       .  S
C785        F800   1.380       .  S
C787        F795   1.384       .  S
C787        F796   1.382       .  S
C787        F797   1.383       .  S
C801        C802   1.401       .  A
C801        C806   1.404       .  A
C801        H811   1.083       .  S
C802        C807   1.482       .  S
C802        C803   1.416       .  A
C803        C808   1.519       .  S
C803        C804   1.408       .  A
C804        C805   1.403       .  A
C804        H809   1.083       .  S
C805        C806   1.415       .  A
C806        C810   1.519       .  S
C807        C812   1.411       .  A
C807        C816   1.396       .  A
C808        F824   1.383       .  S
C808        F825   1.382       .  S
C808        F826   1.385       .  S
C810        F821   1.384       .  S
C810        F822   1.382       .  S
C810        F823   1.382       .  S
C812        C817   1.520       .  S
C812        C813   1.407       .  A
C813        C814   1.415       .  A
C813        H818   1.079       .  S
C814        C815   1.434       .  A
C815        C819   1.522       .  S
C815        C816   1.406       .  A
C816        H820   1.085       .  S
C817        F830   1.384       .  S
C817        F831   1.382       .  S
C817        F832   1.382       .  S
C819        F827   1.385       .  S
C819        F828   1.376       .  S
C819        F829   1.382       .  S
C833        C838   1.413       .  A
C833       C2146   1.406       .  A
C833        H843   1.083       .  S
C834        C839   1.492       .  S
C834        C835   1.419       .  A
C834       C2145   1.407       .  A
C835        C840   1.520       .  S
C835        C836   1.405       .  A
C836       C2149   1.400       .  A
C836        H841   1.077       .  S
C837        C838   1.417       .  A
C837       C2148   1.399   1_556  A
C838        C842   1.517       .  S
C839        C844   1.415       .  A
C839       C2160   1.405       .  A
C840        F856   1.383       .  S
C840        F857   1.381       .  S
C840        F858   1.383       .  S
C842        F853   1.384       .  S
C842        F854   1.381   1_556  S
C842        F855   1.383       .  S
C844        C849   1.519       .  S
C844        C845   1.408       .  A
C845        C846   1.408       .  A
C845        H850   1.083       .  S
C846       C2159   1.420       .  A
C847        C851   1.517       .  S
C847        C848   1.412       .  A
C847       C2158   1.419       .  A
C848       C2151   1.404   1_554  A
C848        H852   1.083       .  S
C849        F862   1.384       .  S
C849        F863   1.383       .  S
C849        F864   1.380       .  S
C851        F859   1.383       .  S
C851        F860   1.380       .  S
C851        F861   1.385       .  S
C865        C866   1.403       .  A
C865        C870   1.417       .  A
C865        H875   1.083       .  S
C866        C871   1.494       .  S
C866        C867   1.412       .  A
C867        C872   1.521       .  S
C867        C868   1.407       .  A
C868        C869   1.413       .  A
C868        H873   1.082       .  S
C869        C870   1.427       .  A
C870        C874   1.517       .  S
C871        C876   1.416       .  A
C871        C880   1.404       .  A
C872        F888   1.382       .  S
C872        F889   1.382       .  S
C872        F890   1.384       .  S
C874        F885   1.380       .  S
C874        F886   1.385       .  S
C874        F887   1.377       .  S
C876        C881   1.518       .  S
C876        C877   1.411       .  A
C877        C878   1.406       .  A
C877        H882   1.083       .  S
C878        C879   1.419       .  A
C879        C883   1.520       .  S
C879        C880   1.410       .  A
C880        H884   1.083       .  S
C881        F894   1.385       .  S
C881        F895   1.382       .  S
C881        F896   1.381       .  S
C883        F891   1.384       .  S
C883        F892   1.383       .  S
C883        F893   1.380       .  S
C897        C898   1.402       .  A
C897        C902   1.405       .  A
C897        H907   1.085       .  S
C898        C903   1.483       .  S
C898        C899   1.416       .  A
C899        C904   1.520       .  S
C899        C900   1.405       .  A
C900        C901   1.403       .  A
C900        H905   1.083       .  S
C901        C902   1.419       .  A
C902        C906   1.518       .  S
C903        C908   1.409       .  A
C903        C912   1.398       .  A
C904        F920   1.382       .  S
C904        F921   1.382       .  S
C904        F922   1.385       .  S
C906        F917   1.383       .  S
C906        F918   1.383       .  S
C906        F919   1.382       .  S
C908        C913   1.521       .  S
C908        C909   1.405       .  A
C909        C910   1.416       .  A
C909        H914   1.078       .  S
C910        C911   1.433       .  A
C911        C915   1.523       .  S
C911        C912   1.407       .  A
C912        H916   1.085       .  S
C913        F926   1.385       .  S
C913        F927   1.382       .  S
C913        F928   1.382       .  S
C915        F923   1.383       .  S
C915        F924   1.379       .  S
C915        F925   1.385       .  S
C929        C934   1.405       .  A
C929       C2242   1.400   1_554  A
C929        H939   1.083       .  S
C930        C935   1.484       .  S
C930        C931   1.413       .  A
C930       C2241   1.402       .  A
C931        C936   1.520       .  S
C931        C932   1.407       .  A
C932       C2245   1.407       .  A
C932        H937   1.083       .  S
C933        C934   1.421   1_556  A
C933       C2244   1.408       .  A
C934        C938   1.520       .  S
C935        C940   1.413       .  A
C935       C2256   1.400       .  A
C936        F952   1.382       .  S
C936        F953   1.381       .  S
C936        F954   1.385       .  S
C938        F949   1.385       .  S
C938        F950   1.382       .  S
C938        F951   1.384       .  S
C940        C945   1.520       .  S
C940        C941   1.406       .  A
C941       C2254   1.401       .  A
C941        H946   1.071       .  S
C942        C943   1.421       .  A
C942       C2253   1.400   1_554  A
C943        C947   1.515       .  S
C943        C944   1.405       .  A
C944       C2247   1.400   1_554  A
C944        H948   1.085       .  S
C945        F958   1.384       .  S
C945        F959   1.382       .  S
C945        F960   1.381       .  S
C947        F955   1.384       .  S
C947        F956   1.377       .  S
C947        F957   1.382       .  S
C961        C966   1.407       .  A
C961       C2274   1.402   1_554  A
C961        H971   1.084       .  S
C962        C967   1.497       .  S
C962        C963   1.418       .  A
C962       C2273   1.402       .  A
C963        C968   1.519       .  S
C963        C964   1.411       .  A
C964        C965   1.404       .  A
C964        H969   1.080       .  S
C965       C2278   1.424       .  A
C966        C970   1.521       .  S
C966       C2277   1.423   1_554  A
C967        C972   1.418       .  A
C967       C2288   1.401       .  A
C968        F984   1.382       .  S
C968        F985   1.383       .  S
C968        F986   1.385       .  S
C970        F981   1.383   1_554  S
C970        F982   1.383       .  S
C970        F983   1.380       .  S
C972        C977   1.520       .  S
C972        C973   1.411       .  A
C973        C974   1.409       .  A
C973        H978   1.082       .  S
C974       C2287   1.427       .  A
C975        C979   1.520       .  S
C975        C976   1.409       .  A
C975       C2286   1.425   1_554  A
C976       C2279   1.400   1_554  A
C976        H980   1.083       .  S
C977        F990   1.384       .  S
C977        F991   1.381       .  S
C977        F992   1.383       .  S
C979        F987   1.382       .  S
C979        F988   1.384       .  S
C979        F989   1.385       .  S
C993        C998   1.411       .  A
C993       C2306   1.402       .  A
C993       H1003   1.083       .  S
C994        C999   1.489       .  S
C994        C995   1.416       .  A
C994       C2305   1.401       .  A
C995       C1000   1.518       .  S
C995        C996   1.409       .  A
C996        C997   1.404       .  A
C996       H1001   1.083       .  S
C997       C2310   1.423       .  A
C998       C1002   1.519       .  S
C998       C2309   1.423       .  A
C999       C1004   1.417       .  A
C999       C2320   1.405       .  A
C1000      F1016   1.383       .  S
C1000      F1017   1.382       .  S
C1000      F1018   1.384       .  S
C1002      F1013   1.385       .  S
C1002      F1014   1.382       .  S
C1002      F1015   1.381       .  S
C1004      C1009   1.520       .  S
C1004      C1005   1.406       .  A
C1005      C1006   1.402       .  A
C1005      H1010   1.083       .  S
C1006      C2319   1.414       .  A
C1007      C1011   1.516       .  S
C1007      C1008   1.413       .  A
C1007      C2318   1.414       .  A
C1008      C2311   1.406       .  A
C1008      H1012   1.083       .  S
C1009      F1022   1.385       .  S
C1009      F1023   1.382       .  S
C1009      F1024   1.382       .  S
C1011      F1019   1.384       .  S
C1011      F1020   1.382       .  S
C1011      F1021   1.383       .  S
C1025      C1030   1.411       .  A
C1025      C2338   1.405   1_554  A
C1025      H1035   1.083       .  S
C1026      C1031   1.493       .  S
C1026      C1027   1.419       .  A
C1026      C2337   1.405       .  A
C1027      C1032   1.521       .  S
C1027      C1028   1.410       .  A
C1028      C1029   1.404       .  A
C1028      H1033   1.083       .  S
C1029      C2342   1.415       .  A
C1030      C1034   1.517       .  S
C1030      C2341   1.416   1_554  A
C1031      C1036   1.418       .  A
C1031      C2352   1.399       .  A
C1032      F1048   1.382       .  S
C1032      F1049   1.382       .  S
C1032      F1050   1.385       .  S
C1034      F1045   1.384       .  S
C1034      F1046   1.383       .  S
C1034      F1047   1.383       .  S
C1036      C1041   1.518       .  S
C1036      C1037   1.415       .  A
C1037      C2350   1.405       .  A
C1037      H1042   1.083       .  S
C1038      C1039   1.423   1_556  A
C1038      C2349   1.406       .  A
C1039      C1043   1.518       .  S
C1039      C1040   1.402       .  A
C1040      C2343   1.398   1_554  A
C1040      H1044   1.085       .  S
C1041      F1054   1.384       .  S
C1041      F1055   1.382       .  S
C1041      F1056   1.381       .  S
C1043      F1051   1.382       .  S
C1043      F1052   1.377       .  S
C1043      F1053   1.384       .  S
C1057      C1062   1.407       .  A
C1057      C2370   1.403       .  A
C1057      H1067   1.083       .  S
C1058      C1063   1.488       .  S
C1058      C1059   1.417       .  A
C1058      C2369   1.403       .  A
C1059      C1064   1.519       .  S
C1059      C1060   1.409       .  A
C1060      C1061   1.403       .  A
C1060      H1065   1.083       .  S
C1061      C2374   1.417       .  A
C1062      C1066   1.517   1_556  S
C1062      C2373   1.415       .  A
C1063      C1068   1.416       .  A
C1063      C2384   1.399       .  A
C1064      F1080   1.382       .  S
C1064      F1081   1.382       .  S
C1064      F1082   1.384       .  S
C1066      F1077   1.385       .  S
C1066      F1078   1.382       .  S
C1066      F1079   1.382   1_554  S
C1068      C1073   1.519       .  S
C1068      C1069   1.411       .  A
C1069      C1070   1.407       .  A
C1069      H1074   1.083       .  S
C1070      C2383   1.425       .  A
C1071      C1075   1.521       .  S
C1071      C1072   1.406       .  A
C1071      C2382   1.426   1_554  A
C1072      C2375   1.398   1_554  A
C1072      H1076   1.083       .  S
C1073      F1086   1.384       .  S
C1073      F1087   1.382       .  S
C1073      F1088   1.382       .  S
C1075      F1083   1.383       .  S
C1075      F1084   1.384       .  S
C1075      F1085   1.385       .  S
C1089      C1094   1.409       .  A
C1089      C2402   1.399       .  A
C1089      H1099   1.083       .  S
C1090      C1095   1.487       .  S
C1090      C1091   1.414       .  A
C1090      C2401   1.399   1_554  A
C1091      C1096   1.520       .  S
C1091      C1092   1.407       .  A
C1092      C2405   1.402       .  A
C1092      H1097   1.072       .  S
C1093      C1094   1.426       .  A
C1093      C2404   1.404       .  A
C1094      C1098   1.521       .  S
C1095      C1100   1.416       .  A
C1095      C2416   1.403   1_554  A
C1096      F1112   1.382       .  S
C1096      F1113   1.382       .  S
C1096      F1114   1.384       .  S
C1098      F1109   1.384       .  S
C1098      F1110   1.380       .  S
C1098      F1111   1.375       .  S
C1100      C1105   1.519       .  S
C1100      C1101   1.408       .  A
C1101      C2414   1.404   1_554  A
C1101      H1106   1.083       .  S
C1102      C1103   1.417       .  A
C1102      C2413   1.405       .  A
C1103      C1107   1.518       .  S
C1103      C1104   1.409       .  A
C1104      C2407   1.403       .  A
C1104      H1108   1.083       .  S
C1105      F1118   1.385       .  S
C1105      F1119   1.383       .  S
C1105      F1120   1.382       .  S
C1107      F1115   1.382       .  S
C1107      F1116   1.383       .  S
C1107      F1117   1.385       .  S
C1121      C1126   1.409       .  A
C1121      C2434   1.401   1_554  A
C1121      H1131   1.083       .  S
C1122      C1127   1.485       .  S
C1122      C1123   1.411       .  A
C1122      C2433   1.401       .  A
C1123      C1128   1.520       .  S
C1123      C1124   1.406       .  A
C1124      C1125   1.412       .  A
C1124      H1129   1.082       .  S
C1125      C2438   1.426       .  A
C1126      C1130   1.520       .  S
C1126      C2437   1.425   1_554  A
C1127      C1132   1.414       .  A
C1127      C2448   1.403       .  A
C1128      F1144   1.382       .  S
C1128      F1145   1.382       .  S
C1128      F1146   1.385       .  S
C1130      F1141   1.385       .  S
C1130      F1142   1.383       .  S
C1130      F1143   1.383       .  S
C1132      C1137   1.520       .  S
C1132      C1133   1.405       .  A
C1133      C2446   1.406       .  A
C1133      H1138   1.083       .  S
C1134      C1135   1.420       .  A
C1134      C2445   1.406       .  A
C1135      C1139   1.513   1_556  S
C1135      C1136   1.409       .  A
C1136      C2439   1.401       .  A
C1136      H1140   1.083       .  S
C1137      F1150   1.384       .  S
C1137      F1151   1.382       .  S
C1137      F1152   1.382       .  S
C1139      F1147   1.384       .  S
C1139      F1148   1.381       .  S
C1139      F1149   1.380   1_554  S
C1153      C1158   1.411       .  A
C1153      C2466   1.402       .  A
C1153      H1163   1.083       .  S
C1154      C1159   1.486       .  S
C1154      C1155   1.414   1_556  A
C1154      C2465   1.401       .  A
C1155      C1160   1.520       .  S
C1155      C1156   1.409       .  A
C1156      C2469   1.407   1_554  A
C1156      H1161   1.083       .  S
C1157      C1158   1.424       .  A
C1157      C2468   1.407       .  A
C1158      C1162   1.520       .  S
C1159      C1164   1.415   1_556  A
C1159      C2480   1.403       .  A
C1160      F1176   1.383       .  S
C1160      F1177   1.382       .  S
C1160      F1178   1.385       .  S
C1162      F1173   1.385       .  S
C1162      F1174   1.382       .  S
C1162      F1175   1.382       .  S
C1164      C1169   1.520       .  S
C1164      C1165   1.406       .  A
C1165      C2478   1.406   1_554  A
C1165      H1170   1.083       .  S
C1166      C1167   1.418       .  A
C1166      C2477   1.405       .  A
C1167      C1171   1.518       .  S
C1167      C1168   1.412       .  A
C1168      C2471   1.404       .  A
C1168      H1172   1.083       .  S
C1169      F1182   1.385       .  S
C1169      F1183   1.382       .  S
C1169      F1184   1.382       .  S
C1171      F1179   1.382       .  S
C1171      F1180   1.384       .  S
C1171      F1181   1.384       .  S
C1185      C1190   1.402       .  A
C1185      C2498   1.399   1_554  A
C1185      H1195   1.085       .  S
C1186      C1191   1.484       .  S
C1186      C1187   1.416       .  A
C1186      C2497   1.397       .  A
C1187      C1192   1.518       .  S
C1187      C1188   1.411       .  A
C1188      C2501   1.404       .  A
C1188      H1193   1.083       .  S
C1189      C1190   1.421   1_556  A
C1189      C2500   1.404       .  A
C1190      C1194   1.519       .  S
C1191      C1196   1.414       .  A
C1191      C2512   1.404       .  A
C1192      F1208   1.383       .  S
C1192      F1209   1.382       .  S
C1192      F1210   1.384       .  S
C1194      F1205   1.384       .  S
C1194      F1206   1.383       .  S
C1194      F1207   1.378       .  S
C1196      C1201   1.520       .  S
C1196      C1197   1.404       .  A
C1197      C2510   1.404       .  A
C1197      H1202   1.083       .  S
C1198      C1199   1.418   1_556  A
C1198      C2509   1.407       .  A
C1199      C1203   1.518       .  S
C1199      C1200   1.409       .  A
C1200      C2503   1.404   1_554  A
C1200      H1204   1.083       .  S
C1201      F1214   1.384       .  S
C1201      F1215   1.382       .  S
C1201      F1216   1.382       .  S
C1203      F1211   1.382       .  S
C1203      F1212   1.383       .  S
C1203      F1213   1.385       .  S
C1217      C1222   1.410       .  A
C1217      C2530   1.397       .  A
C1217      H1227   1.083       .  S
C1218      C1223   1.486       .  S
C1218      C1219   1.413       .  A
C1218      C2529   1.396       .  A
C1219      C1224   1.519       .  S
C1219      C1220   1.410       .  A
C1220      C1221   1.411       .  A
C1220      H1225   1.082       .  S
C1221      C2534   1.432       .  A
C1222      C1226   1.522       .  S
C1222      C2533   1.432       .  A
C1223      C1228   1.416       .  A
C1223      C2544   1.397       .  A
C1224      F1240   1.383       .  S
C1224      F1241   1.381       .  S
C1224      F1242   1.385       .  S
C1226      F1237   1.385       .  S
C1226      F1238   1.384       .  S
C1226      F1239   1.383       .  S
C1228      C1233   1.519       .  S
C1228      C1229   1.411       .  A
C1229      C1230   1.405       .  A
C1229      H1234   1.083       .  S
C1230      C2543   1.426       .  A
C1231      C1235   1.521       .  S
C1231      C1232   1.405       .  A
C1231      C2542   1.424       .  A
C1232      C2535   1.398       .  A
C1232      H1236   1.085       .  S
C1233      F1246   1.384       .  S
C1233      F1247   1.383       .  S
C1233      F1248   1.382       .  S
C1235      F1243   1.384       .  S
C1235      F1244   1.381       .  S
C1235      F1245   1.383   1_554  S
C1249      C1254   1.407       .  A
C1249      C2562   1.400       .  A
C1249      H1259   1.083       .  S
C1250      C1255   1.486       .  S
C1250      C1251   1.417   1_556  A
C1250      C2561   1.401       .  A
C1251      C1256   1.520       .  S
C1251      C1252   1.408       .  A
C1252      C2565   1.404   1_554  A
C1252      H1257   1.083       .  S
C1253      C1254   1.420       .  A
C1253      C2564   1.404       .  A
C1254      C1258   1.519       .  S
C1255      C1260   1.415   1_556  A
C1255      C2576   1.403       .  A
C1256      F1272   1.382       .  S
C1256      F1273   1.382       .  S
C1256      F1274   1.385       .  S
C1258      F1269   1.385       .  S
C1258      F1270   1.382       .  S
C1258      F1271   1.383       .  S
C1260      C1265   1.520       .  S
C1260      C1261   1.407       .  A
C1261      C1262   1.406   1_554  A
C1261      H1266   1.083       .  S
C1262      C2575   1.417       .  A
C1263      C1267   1.518       .  S
C1263      C1264   1.409       .  A
C1263      C2574   1.418       .  A
C1264      C2567   1.403       .  A
C1264      H1268   1.083       .  S
C1265      F1278   1.385       .  S
C1265      F1279   1.382       .  S
C1265      F1280   1.382       .  S
C1267      F1275   1.383       .  S
C1267      F1276   1.383       .  S
C1267      F1277   1.385       .  S
C1281      C1286   1.406       .  A
C1281      C2594   1.399   1_554  A
C1281      H1291   1.083       .  S
C1282      C1287   1.484       .  S
C1282      C1283   1.416       .  A
C1282      C2593   1.399       .  A
C1283      C1288   1.519       .  S
C1283      C1284   1.410       .  A
C1284      C2597   1.404       .  A
C1284      H1289   1.083       .  S
C1285      C1286   1.421   1_556  A
C1285      C2596   1.404       .  A
C1286      C1290   1.518       .  S
C1287      C1292   1.414       .  A
C1287      C2608   1.400       .  A
C1288      F1304   1.382       .  S
C1288      F1305   1.381       .  S
C1288      F1306   1.384       .  S
C1290      F1301   1.385       .  S
C1290      F1302   1.382       .  S
C1290      F1303   1.380   1_554  S
C1292      C1297   1.520       .  S
C1292      C1293   1.408       .  A
C1293      C1294   1.409       .  A
C1293      H1298   1.083       .  S
C1294      C2607   1.423       .  A
C1295      C1299   1.519       .  S
C1295      C1296   1.409       .  A
C1295      C2606   1.423   1_554  A
C1296      C2599   1.401   1_554  A
C1296      H1300   1.083       .  S
C1297      F1310   1.385       .  S
C1297      F1311   1.382       .  S
C1297      F1312   1.382       .  S
C1299      F1307   1.383       .  S
C1299      F1308   1.383       .  S
C1299      F1309   1.385       .  S
O1313     Ni1321   1.923       .  S
O1314     Ni1321   1.924   1_655  S
O1314      C1324   1.282       .  A
O1315     Ni1321   1.907       .  S
O1316     Ni1321   1.906   1_655  S
O1316      C1326   1.279       .  A
O1317     Ni1322   1.931   1_655  S
O1318     Ni1322   1.935       .  S
O1318      C1325   1.286   1_556  A
O1319     Ni1322   1.910   1_655  S
O1320     Ni1322   1.910       .  S
O1320      C1323   1.280       .  A
C1323      C2606   1.493       .  S
C1324      C2510   1.480       .  S
C1325      C2533   1.506       .  S
C1326      C2574   1.484       .  S
O1327     Ni1335   1.926       .  S
O1328     Ni1335   1.926   1_565  S
O1329     Ni1335   1.917       .  S
O1330     Ni1335   1.920   1_565  S
O1331     Ni1336   1.922   1_565  S
O1331      C1340   1.281       .  A
O1332     Ni1336   1.923       .  S
O1332      C1339   1.281       .  A
O1333     Ni1336   1.916   1_565  S
O1333      C1338   1.280       .  A
O1334     Ni1336   1.915       .  S
O1334      C1337   1.282       .  A
C1337      C2437   1.497       .  S
C1338      C2565   1.483       .  S
C1339      C2478   1.484       .  S
C1340      C2414   1.479       .  S
O1341     Ni1349   1.929       .  S
O1342     Ni1349   1.932   1_455  S
O1343     Ni1349   1.913       .  S
O1344     Ni1349   1.910   1_455  S
O1345     Ni1350   1.928   1_455  S
O1345      C1354   1.284       .  A
O1346     Ni1350   1.931       .  S
O1346      C1353   1.285   1_556  A
O1347     Ni1350   1.917   1_455  S
O1347      C1352   1.280       .  A
O1348     Ni1350   1.918       .  S
O1348      C1351   1.280       .  A
C1351      C2469   1.487       .  S
C1352      C2341   1.484       .  S
C1353      C2309   1.489       .  S
C1354      C2382   1.495       .  S
O1355     Ni1363   1.919   1_565  S
O1355      C1365   1.281       .  A
O1356     Ni1363   1.923       .  S
O1357     Ni1363   1.913   1_565  S
O1357      C1367   1.279       .  A
O1358     Ni1363   1.917       .  S
O1359     Ni1364   1.933       .  S
O1359      C1368   1.285       .  A
O1360     Ni1364   1.933   1_565  S
O1361     Ni1364   1.921       .  S
O1361      C1366   1.281       .  A
O1362     Ni1364   1.919   1_565  S
C1365      C2245   1.485       .  S
C1366      C2373   1.477       .  S
C1367      C2597   1.483       .  S
C1368      C2286   1.498       .  S
C1369      C1370   1.539       .  S
C1369      C1375   1.536   1_556  S
C1369      C1373   1.525       .  S
C1369      C2222   1.543       .  S
C1370      H1377   1.084       .  S
C1370      C1371   1.363   1_556  D
C1371      C2542   1.491       .  S
C1372      C1376   1.557       .  S
C1372      H1378   1.101       .  S
C1373      H1379   1.087       .  S
C1373      C1374   1.363   1_556  D
C1374      C2158   1.493       .  S
C1375      H1380   1.083       .  S
C1376      C2181   1.511       .  S
C1381      C1382   1.530       .  S
C1381      C1387   1.551       .  S
C1381      C1385   1.538       .  S
C1381      C2126   1.553       .  S
C1382      H1389   1.082       .  S
C1382      C1383   1.361       .  D
C1383      C2254   1.491       .  S
C1384      C1388   1.553       .  S
C1384      H1390   1.107       .  S
C1385      H1391   1.086       .  S
C1385      C1386   1.365       .  D
C1386      C2149   1.494       .  S
C1387      H1392   1.082       .  S
C1388      C2085   1.510       .  S
N1393      C1398   1.354       .  A
N1393      C1397   1.353       .  A
N1393      H1425   1.040       .  S
N1394      C1401   1.348       .  A
N1394      C1402   1.350       .  A
N1395      C1400   1.352       .  A
N1395      C1399   1.355       .  A
N1395      H1426   1.039       .  S
N1396      C1403   1.354       .  A
N1396      C1404   1.351       .  A
C1397      C1405   1.387       .  A
C1397      C1413   1.414       .  A
C1398      C1414   1.415       .  A
C1398      C1406   1.387       .  A
C1399      C1407   1.385       .  A
C1399      C1416   1.418       .  A
C1400      C1415   1.418       .  A
C1400      C1408   1.389       .  A
C1401      C1413   1.408       .  A
C1401      C1409   1.386       .  A
C1402      C1416   1.411       .  A
C1402      C1410   1.386       .  A
C1403      C1411   1.385       .  A
C1403      C1414   1.416       .  A
C1404      C1412   1.388       .  A
C1404      C1415   1.418       .  A
C1405      C1406   1.377       .  A
C1405      H1417   1.082       .  S
C1406      H1418   1.082       .  S
C1407      C1408   1.376       .  A
C1407      H1419   1.082       .  S
C1408      H1420   1.081       .  S
C1409      C1410   1.373       .  A
C1409      H1421   1.082       .  S
C1410      H1422   1.082       .  S
C1411      C1412   1.375       .  A
C1411      H1423   1.082       .  S
C1412      H1424   1.082       .  S
C1413      C2117   1.482       .  S
C1414      C2021   1.500       .  S
C1415      C2062   1.488       .  S
C1416      C2094   1.497       .  S
C1427      C1428   1.526       .  S
C1427      C1433   1.530   1_556  S
C1427      C1431   1.547       .  S
C1427      C2053   1.542       .  S
C1428      H1435   1.086       .  S
C1428      C1429   1.362   1_556  D
C1429      C2405   1.496       .  S
C1430      C1434   1.556       .  S
C1430      H1436   1.106       .  S
C1431      H1437   1.080       .  S
C1431      C1432   1.374   1_556  D
C1432      C1989   1.512       .  S
C1433      H1438   1.079       .  S
C1434      C2030   1.504       .  S
C1439      C1440   1.523       .  S
C1439      C1445   1.541       .  S
C1439      C1443   1.536       .  S
C1439      C1957   1.543       .  S
C1440      H1447   1.085       .  S
C1440      C1441   1.361       .  D
C1441      C2501   1.480       .  S
C1442      C1446   1.540       .  S
C1442      H1448   1.091       .  S
C1443      H1449   1.084       .  S
C1443      C1444   1.383       .  D
C1444      C1998   1.535       .  S
C1445      H1450   1.083       .  S
C1446      C1925   1.494       .  S
C1451      C1452   1.527       .  S
C1451      C1457   1.545   1_556  S
C1451      C1455   1.527       .  S
C1451      C1893   1.542       .  S
C1452      H1459   1.083       .  S
C1452      C1453   1.363       .  D
C1453      C2277   1.488       .  S
C1454      C1458   1.553       .  S
C1454      H1460   1.100       .  S
C1455      H1461   1.084       .  S
C1455      C1456   1.364       .  D
C1456      C1838   1.502   1_556  S
C1457      H1462   1.085       .  S
C1458      C1861   1.518       .  S
C1463      C1464   1.537       .  S
C1463      C1469   1.539       .  S
C1463      C1467   1.529       .  S
C1463      C1797   1.549       .  S
C1464      H1471   1.082       .  S
C1464      C1465   1.368       .  D
C1465      C2350   1.491       .  S
C1466      C1470   1.545       .  S
C1466      H1472   1.099       .  S
C1467      H1473   1.084       .  S
C1467      C1468   1.380       .  D
C1468      C1829   1.529       .  S
C1469      H1474   1.085       .  S
C1470      C1765   1.496       .  S
N1475      C1480   1.357       .  A
N1475      C1479   1.352       .  A
N1475      H1507   1.038       .  S
N1476      C1483   1.352       .  A
N1476      C1484   1.355       .  A
N1477      C1482   1.354       .  A
N1477      C1481   1.358       .  A
N1477      H1508   1.037       .  S
N1478      C1485   1.355       .  A
N1478      C1486   1.350       .  A
C1479      C1487   1.388       .  A
C1479      C1495   1.417       .  A
C1480      C1496   1.420       .  A
C1480      C1488   1.386       .  A
C1481      C1489   1.388       .  A
C1481      C1498   1.424       .  A
C1482      C1497   1.420       .  A
C1482      C1490   1.387       .  A
C1483      C1495   1.416       .  A
C1483      C1491   1.386       .  A
C1484      C1498   1.419       .  A
C1484      C1492   1.386       .  A
C1485      C1493   1.386       .  A
C1485      C1496   1.418       .  A
C1486      C1494   1.386       .  A
C1486      C1497   1.415       .  A
C1487      C1488   1.377       .  A
C1487      H1499   1.082       .  S
C1488      H1500   1.082       .  S
C1489      C1490   1.374       .  A
C1489      H1501   1.081       .  S
C1490      H1502   1.082       .  S
C1491      C1492   1.372       .  A
C1491      H1503   1.082       .  S
C1492      H1504   1.081       .  S
C1493      C1494   1.374       .  A
C1493      H1505   1.082       .  S
C1494      H1506   1.082       .  S
C1495      C1806   1.487       .  S
C1496      C2190   1.508       .  S
C1497      C2213   1.489       .  S
C1498      C1774   1.504       .  S
N1509      C1514   1.354       .  A
N1509      C1513   1.356       .  A
N1509      H1541   1.038       .  S
N1510      C1517   1.356       .  A
N1510      C1518   1.354       .  A
N1511      C1516   1.358       .  A
N1511      C1515   1.354       .  A
N1511      H1542   1.038       .  S
N1512      C1519   1.351       .  A
N1512      C1520   1.353       .  A
C1513      C1521   1.387       .  A
C1513      C1529   1.420       .  A
C1514      C1530   1.418       .  A
C1514      C1522   1.387       .  A
C1515      C1523   1.390       .  A
C1515      C1532   1.423       .  A
C1516      C1531   1.421       .  A
C1516      C1524   1.384       .  A
C1517      C1529   1.419       .  A
C1517      C1525   1.385       .  A
C1518      C1532   1.422       .  A
C1518      C1526   1.388       .  A
C1519      C1527   1.387       .  A
C1519      C1530   1.413       .  A
C1520      C1528   1.385       .  A
C1520      C1531   1.414       .  A
C1521      C1522   1.378       .  A
C1521      H1533   1.082       .  S
C1522      H1534   1.082       .  S
C1523      C1524   1.374       .  A
C1523      H1535   1.081       .  S
C1524      H1536   1.082       .  S
C1525      C1526   1.374       .  A
C1525      H1537   1.082       .  S
C1526      H1538   1.082       .  S
C1527      C1528   1.373       .  A
C1527      H1539   1.082       .  S
C1528      H1540   1.082       .  S
C1529      C1701   1.505       .  S
C1530      C1902   1.489       .  S
C1531      C1870   1.504       .  S
C1532      C1733   1.496       .  S
C1543      C1544   1.524       .  S
C1543      C1549   1.532       .  S
C1543      C1547   1.545       .  S
C1543      C1742   1.540       .  S
C1544      H1551   1.087       .  S
C1544      C1545   1.360       .  D
C1545      C2446   1.492       .  S
C1546      C1550   1.560       .  S
C1546      H1552   1.096       .  S
C1547      H1553   1.085       .  S
C1547      C1548   1.372       .  D
C1548      C1678   1.503       .  S
C1549      H1554   1.084       .  S
C1550      C1710   1.512       .  S
C1555      C1556   1.530       .  S
C1555      C1561   1.532   1_556  S
C1555      C1559   1.538       .  S
C1555      C1646   1.535       .  S
C1556      H1563   1.087       .  S
C1556      C1557   1.360   1_556  D
C1557      C2318   1.487       .  S
C1558      C1562   1.558       .  S
C1558      H1564   1.101       .  S
C1559      H1565   1.086       .  S
C1559      C1560   1.367       .  D
C1560      C1669   1.485   1_556  S
C1561      H1566   1.082       .  S
C1562      C1605   1.519       .  S
N1567      C1572   1.356       .  A
N1567      C1571   1.352       .  A
N1567      H1599   1.036       .  S
N1568      C1575   1.351       .  A
N1568      C1576   1.353       .  A
N1569      C1574   1.354       .  A
N1569      C1573   1.356       .  A
N1569      H1600   1.037       .  S
N1570      C1577   1.351       .  A
N1570      C1578   1.348       .  A
C1571      C1579   1.389       .  A
C1571      C1587   1.418       .  A
C1572      C1588   1.419       .  A
C1572      C1580   1.386       .  A
C1573      C1581   1.388       .  A
C1573      C1590   1.421       .  A
C1574      C1589   1.418       .  A
C1574      C1582   1.387       .  A
C1575      C1587   1.416       .  A
C1575      C1583   1.387       .  A
C1576      C1590   1.416       .  A
C1576      C1584   1.386       .  A
C1577      C1585   1.385       .  A
C1577      C1588   1.410       .  A
C1578      C1586   1.387       .  A
C1578      C1589   1.409       .  A
C1579      C1580   1.375       .  A
C1579      H1591   1.082       .  S
C1580      H1592   1.082       .  S
C1581      C1582   1.376       .  A
C1581      H1593   1.082       .  S
C1582      H1594   1.083       .  S
C1583      C1584   1.370       .  A
C1583      H1595   1.082       .  S
C1584      H1596   1.082       .  S
C1585      C1586   1.371       .  A
C1585      H1597   1.082       .  S
C1586      H1598   1.082       .  S
C1587      C1637   1.485       .  S
C1588      C1934   1.495       .  S
C1589      C1966   1.482       .  S
C1590      C1614   1.496       .  S
C1601      C1602   1.404       .  A
C1601      C1606   1.418       .  A
C1601      H1611   1.083       .  S
C1602      C1607   1.494       .  S
C1602      C1603   1.412       .  A
C1603      C1608   1.524       .  S
C1603      C1604   1.402       .  A
C1604      C1605   1.414       .  A
C1604      H1609   1.079       .  S
C1605      C1606   1.429       .  A
C1606      C1610   1.517       .  S
C1607      C1612   1.419       .  A
C1607      C1616   1.404       .  A
C1608      F1624   1.381       .  S
C1608      F1625   1.383       .  S
C1608      F1626   1.385       .  S
C1610      F1621   1.385       .  S
C1610      F1622   1.381       .  S
C1610      F1623   1.379       .  S
C1612      C1617   1.519       .  S
C1612      C1613   1.409       .  A
C1613      C1614   1.403       .  A
C1613      H1618   1.083       .  S
C1614      C1615   1.417       .  A
C1615      C1619   1.519       .  S
C1615      C1616   1.408       .  A
C1616      H1620   1.083       .  S
C1617      F1630   1.385       .  S
C1617      F1631   1.381       .  S
C1617      F1632   1.383       .  S
C1619      F1627   1.381       .  S
C1619      F1628   1.383       .  S
C1619      F1629   1.385       .  S
C1633      C1634   1.402       .  A
C1633      C1638   1.403       .  A
C1633      H1643   1.083       .  S
C1634      C1639   1.477       .  S
C1634      C1635   1.416       .  A
C1635      C1640   1.520       .  S
C1635      C1636   1.406       .  A
C1636      C1637   1.403       .  A
C1636      H1641   1.083       .  S
C1637      C1638   1.415       .  A
C1638      C1642   1.520       .  S
C1639      C1644   1.412       .  A
C1639      C1648   1.396       .  A
C1640      F1656   1.383       .  S
C1640      F1657   1.380       .  S
C1640      F1658   1.384       .  S
C1642      F1653   1.381       .  S
C1642      F1654   1.385       .  S
C1642      F1655   1.383       .  S
C1644      C1649   1.520       .  S
C1644      C1645   1.409       .  A
C1645      C1646   1.413       .  A
C1645      H1650   1.081       .  S
C1646      C1647   1.430       .  A
C1647      C1651   1.523       .  S
C1647      C1648   1.399       .  A
C1648      H1652   1.085       .  S
C1649      F1662   1.385       .  S
C1649      F1663   1.383       .  S
C1649      F1664   1.380       .  S
C1651      F1659   1.385       .  S
C1651      F1660   1.379       .  S
C1651      F1661   1.383       .  S
C1665      C1670   1.405       .  A
C1665      H1675   1.085       .  S
C1666      C1671   1.489       .  S
C1666      C1667   1.416       .  A
C1667      C1672   1.520       .  S
C1667      C1668   1.411       .  A
C1668      H1673   1.082       .  S
C1669      C1670   1.423       .  A
C1670      C1674   1.521       .  S
C1671      C1676   1.414       .  A
C1672      F1688   1.383       .  S
C1672      F1689   1.380       .  S
C1672      F1690   1.385       .  S
C1674      F1685   1.384       .  S
C1674      F1686   1.383   1_554  S
C1674      F1687   1.380       .  S
C1676      C1681   1.523       .  S
C1676      C1677   1.407       .  A
C1677      C1678   1.410       .  A
C1677      H1682   1.082       .  S
C1679      C1683   1.518       .  S
C1679      C1680   1.411       .  A
C1680      H1684   1.083       .  S
C1681      F1694   1.384       .  S
C1681      F1695   1.383       .  S
C1681      F1696   1.380       .  S
C1683      F1691   1.381       .  S
C1683      F1692   1.380       .  S
C1683      F1693   1.385       .  S
C1697      C1698   1.403       .  A
C1697      C1702   1.409       .  A
C1697      H1707   1.083       .  S
C1698      C1703   1.494       .  S
C1698      C1699   1.417       .  A
C1699      C1704   1.519       .  S
C1699      C1700   1.414       .  A
C1700      C1701   1.409       .  A
C1700      H1705   1.083       .  S
C1701      C1702   1.420       .  A
C1702      C1706   1.519       .  S
C1703      C1708   1.415       .  A
C1703      C1712   1.403       .  A
C1704      F1720   1.383       .  S
C1704      F1721   1.380       .  S
C1704      F1722   1.384       .  S
C1706      F1717   1.380       .  S
C1706      F1718   1.385       .  S
C1706      F1719   1.383       .  S
C1708      C1713   1.522       .  S
C1708      C1709   1.409       .  A
C1709      C1710   1.413       .  A
C1709      H1714   1.083       .  S
C1710      C1711   1.424       .  A
C1711      C1715   1.515       .  S
C1711      C1712   1.415       .  A
C1712      H1716   1.083       .  S
C1713      F1726   1.385       .  S
C1713      F1727   1.383       .  S
C1713      F1728   1.380       .  S
C1715      F1723   1.385       .  S
C1715      F1724   1.378       .  S
C1715      F1725   1.380       .  S
C1729      C1730   1.401       .  A
C1729      C1734   1.406       .  A
C1729      H1739   1.085       .  S
C1730      C1735   1.484       .  S
C1730      C1731   1.414       .  A
C1731      C1736   1.520       .  S
C1731      C1732   1.407       .  A
C1732      C1733   1.406       .  A
C1732      H1737   1.083       .  S
C1733      C1734   1.423       .  A
C1734      C1738   1.519       .  S
C1735      C1740   1.412       .  A
C1735      C1744   1.397       .  A
C1736      F1752   1.383       .  S
C1736      F1753   1.380       .  S
C1736      F1754   1.384       .  S
C1738      F1749   1.383       .  S
C1738      F1750   1.384       .  S
C1738      F1751   1.381       .  S
C1740      C1745   1.520       .  S
C1740      C1741   1.409       .  A
C1741      C1742   1.413       .  A
C1741      H1746   1.080       .  S
C1742      C1743   1.433       .  A
C1743      C1747   1.524       .  S
C1743      C1744   1.406       .  A
C1744      H1748   1.085       .  S
C1745      F1758   1.384       .  S
C1745      F1759   1.383       .  S
C1745      F1760   1.381       .  S
C1747      F1755   1.385       .  S
C1747      F1756   1.379       .  S
C1747      F1757   1.383       .  S
C1761      C1762   1.407       .  A
C1761      C1766   1.414       .  A
C1761      H1771   1.082       .  S
C1762      C1767   1.501       .  S
C1762      C1763   1.421       .  A
C1763      C1768   1.521       .  S
C1763      C1764   1.407       .  A
C1764      C1765   1.404       .  A
C1764      H1769   1.083       .  S
C1765      C1766   1.418       .  A
C1766      C1770   1.517       .  S
C1767      C1772   1.421       .  A
C1767      C1776   1.405       .  A
C1768      F1784   1.381       .  S
C1768      F1785   1.384       .  S
C1768      F1786   1.385       .  S
C1770      F1781   1.385       .  S
C1770      F1782   1.377       .  S
C1770      F1783   1.384       .  S
C1772      C1777   1.521       .  S
C1772      C1773   1.410       .  A
C1773      C1774   1.406       .  A
C1773      H1778   1.083       .  S
C1774      C1775   1.423       .  A
C1775      C1779   1.519       .  S
C1775      C1776   1.409       .  A
C1776      H1780   1.084       .  S
C1777      F1790   1.385       .  S
C1777      F1791   1.381       .  S
C1777      F1792   1.383       .  S
C1779      F1787   1.383       .  S
C1779      F1788   1.381       .  S
C1779      F1789   1.384       .  S
C1793      C1794   1.397       .  A
C1793      C1798   1.407       .  A
C1793      H1803   1.085       .  S
C1794      C1799   1.482       .  S
C1794      C1795   1.409       .  A
C1795      C1800   1.521       .  S
C1795      C1796   1.405       .  A
C1796      C1797   1.418       .  A
C1796      H1801   1.079       .  S
C1797      C1798   1.431       .  A
C1798      C1802   1.518       .  S
C1799      C1804   1.415       .  A
C1799      C1808   1.403       .  A
C1800      F1816   1.382       .  S
C1800      F1817   1.383       .  S
C1800      F1818   1.385       .  S
C1802      F1813   1.382       .  S
C1802      F1814   1.385       .  S
C1802      F1815   1.375       .  S
C1804      C1809   1.519       .  S
C1804      C1805   1.404       .  A
C1805      C1806   1.402       .  A
C1805      H1810   1.083       .  S
C1806      C1807   1.416       .  A
C1807      C1811   1.518       .  S
C1807      C1808   1.407       .  A
C1808      H1812   1.083       .  S
C1809      F1822   1.385       .  S
C1809      F1823   1.382       .  S
C1809      F1824   1.382       .  S
C1811      F1819   1.381       .  S
C1811      F1820   1.382       .  S
C1811      F1821   1.385       .  S
C1825      C1830   1.415       .  A
C1825      H1835   1.082       .  S
C1826      C1831   1.497       .  S
C1826      C1827   1.412       .  A
C1827      C1832   1.522       .  S
C1827      C1828   1.403       .  A
C1828      C1829   1.416       .  A
C1828      H1833   1.080       .  S
C1830      C1834   1.520       .  S
C1831      C1836   1.419       .  A
C1832      F1848   1.380       .  S
C1832      F1849   1.384       .  S
C1832      F1850   1.385       .  S
C1834      F1845   1.385       .  S
C1834      F1846   1.379       .  S
C1834      F1847   1.374       .  S
C1836      C1841   1.520       .  S
C1836      C1837   1.413       .  A
C1837      H1842   1.078       .  S
C1838      C1839   1.424   1_554  A
C1839      C1843   1.520       .  S
C1839      C1840   1.402       .  A
C1840      H1844   1.083       .  S
C1841      F1854   1.385       .  S
C1841      F1855   1.381       .  S
C1841      F1856   1.383       .  S
C1843      F1851   1.383       .  S
C1843      F1852   1.383       .  S
C1843      F1853   1.385   1_556  S
C1857      C1858   1.402       .  A
C1857      C1862   1.417       .  A
C1857      H1867   1.083       .  S
C1858      C1863   1.494       .  S
C1858      C1859   1.412       .  A
C1859      C1864   1.522       .  S
C1859      C1860   1.408       .  A
C1860      C1861   1.414       .  A
C1860      H1865   1.083       .  S
C1861      C1862   1.428       .  A
C1862      C1866   1.516       .  S
C1863      C1868   1.416       .  A
C1863      C1872   1.403       .  A
C1864      F1880   1.383       .  S
C1864      F1881   1.381       .  S
C1864      F1882   1.384       .  S
C1866      F1877   1.381       .  S
C1866      F1878   1.385       .  S
C1866      F1879   1.376       .  S
C1868      C1873   1.519       .  S
C1868      C1869   1.412       .  A
C1869      C1870   1.408       .  A
C1869      H1874   1.083       .  S
C1870      C1871   1.422       .  A
C1871      C1875   1.519       .  S
C1871      C1872   1.408       .  A
C1872      H1876   1.085       .  S
C1873      F1886   1.384       .  S
C1873      F1887   1.383       .  S
C1873      F1888   1.381       .  S
C1875      F1883   1.384       .  S
C1875      F1884   1.382       .  S
C1875      F1885   1.383       .  S
C1889      C1890   1.398       .  A
C1889      C1894   1.409       .  A
C1889      H1899   1.084       .  S
C1890      C1895   1.483       .  S
C1890      C1891   1.410       .  A
C1891      C1896   1.521       .  S
C1891      C1892   1.403       .  A
C1892      C1893   1.415       .  A
C1892      H1897   1.079       .  S
C1893      C1894   1.434       .  A
C1894      C1898   1.525       .  S
C1895      C1900   1.415       .  A
C1895      C1904   1.402       .  A
C1896      F1912   1.382       .  S
C1896      F1913   1.382       .  S
C1896      F1914   1.384       .  S
C1898      F1909   1.382       .  S
C1898      F1910   1.385       .  S
C1898      F1911   1.379       .  S
C1900      C1905   1.518       .  S
C1900      C1901   1.407       .  A
C1901      C1902   1.403       .  A
C1901      H1906   1.083       .  S
C1902      C1903   1.416       .  A
C1903      C1907   1.518       .  S
C1903      C1904   1.406       .  A
C1904      H1908   1.083       .  S
C1905      F1918   1.384       .  S
C1905      F1919   1.383       .  S
C1905      F1920   1.382       .  S
C1907      F1915   1.382       .  S
C1907      F1916   1.382       .  S
C1907      F1917   1.385       .  S
C1921      C1922   1.397       .  A
C1921      C1926   1.400       .  A
C1921      H1931   1.085       .  S
C1922      C1927   1.485       .  S
C1922      C1923   1.417       .  A
C1923      C1928   1.518       .  S
C1923      C1924   1.415       .  A
C1924      C1925   1.407       .  A
C1924      H1929   1.083       .  S
C1925      C1926   1.424       .  A
C1926      C1930   1.520       .  S
C1927      C1932   1.417       .  A
C1927      C1936   1.402       .  A
C1928      F1944   1.383       .  S
C1928      F1945   1.381       .  S
C1928      F1946   1.384       .  S
C1930      F1941   1.383       .  S
C1930      F1942   1.384       .  S
C1932      C1937   1.520       .  S
C1932      C1933   1.407       .  A
C1933      C1934   1.404       .  A
C1933      H1938   1.083       .  S
C1934      C1935   1.420       .  A
C1935      C1939   1.520       .  S
C1935      C1936   1.408       .  A
C1936      H1940   1.083       .  S
C1937      F1950   1.385       .  S
C1937      F1951   1.382       .  S
C1937      F1952   1.380       .  S
C1939      F1947   1.385       .  S
C1939      F1948   1.383       .  S
C1939      F1949   1.380       .  S
C1953      C1954   1.397       .  A
C1953      C1958   1.408       .  A
C1953      H1963   1.085       .  S
C1954      C1959   1.479       .  S
C1954      C1955   1.410       .  A
C1955      C1960   1.522       .  S
C1955      C1956   1.399       .  A
C1956      C1957   1.413       .  A
C1956      H1961   1.078       .  S
C1957      C1958   1.433       .  A
C1958      C1962   1.520       .  S
C1959      C1964   1.416       .  A
C1959      C1968   1.400       .  A
C1960      F1976   1.382       .  S
C1960      F1977   1.383       .  S
C1960      F1978   1.385       .  S
C1962      F1973   1.383       .  S
C1962      F1974   1.385       .  S
C1962      F1975   1.375       .  S
C1964      C1969   1.518       .  S
C1964      C1965   1.405       .  A
C1965      C1966   1.401       .  A
C1965      H1970   1.083       .  S
C1966      C1967   1.415       .  A
C1967      C1971   1.519       .  S
C1967      C1968   1.402       .  A
C1968      H1972   1.083       .  S
C1969      F1982   1.385       .  S
C1969      F1983   1.382       .  S
C1969      F1984   1.382       .  S
C1971      F1979   1.382       .  S
C1971      F1980   1.382       .  S
C1971      F1981   1.385       .  S
C1985      C1990   1.408       .  A
C1985      H1995   1.084       .  S
C1986      C1991   1.497       .  S
C1986      C1987   1.416       .  A
C1987      C1992   1.520       .  S
C1987      C1988   1.410       .  A
C1988      H1993   1.080       .  S
C1989      C1990   1.428   1_554  A
C1990      C1994   1.520       .  S
C1991      C1996   1.410       .  A
C1992      F2008   1.381       .  S
C1992      F2009   1.383       .  S
C1992      F2010   1.384       .  S
C1994      F2005   1.385       .  S
C1994      F2006   1.383       .  S
C1994      F2007   1.383       .  S
C1996      C2001   1.521       .  S
C1996      C1997   1.408       .  A
C1997      C1998   1.419       .  A
C1997      H2002   1.079       .  S
C1999      C2003   1.520       .  S
C1999      C2000   1.418       .  A
C2000      H2004   1.082       .  S
C2001      F2014   1.385       .  S
C2001      F2015   1.381       .  S
C2001      F2016   1.383       .  S
C2003      F2011   1.383       .  S
C2003      F2012   1.379       .  S
C2003      F2013   1.385       .  S
C2017      C2018   1.403       .  A
C2017      C2022   1.409       .  A
C2017      H2027   1.083       .  S
C2018      C2023   1.488       .  S
C2018      C2019   1.413       .  A
C2019      C2024   1.518       .  S
C2019      C2020   1.409       .  A
C2020      C2021   1.407       .  A
C2020      H2025   1.083       .  S
C2021      C2022   1.421       .  A
C2022      C2026   1.522       .  S
C2023      C2028   1.415       .  A
C2023      C2032   1.399       .  A
C2024      F2040   1.383       .  S
C2024      F2041   1.380       .  S
C2024      F2042   1.384       .  S
C2026      F2037   1.379       .  S
C2026      F2038   1.385       .  S
C2026      F2039   1.383       .  S
C2028      C2033   1.521       .  S
C2028      C2029   1.409       .  A
C2029      C2030   1.410       .  A
C2029      H2034   1.083       .  S
C2030      C2031   1.421       .  A
C2031      C2035   1.508       .  S
C2031      C2032   1.409       .  A
C2032      H2036   1.083       .  S
C2033      F2046   1.385       .  S
C2033      F2047   1.383       .  S
C2033      F2048   1.380       .  S
C2035      F2043   1.385       .  S
C2035      F2044   1.382       .  S
C2035      F2045   1.380       .  S
C2049      C2050   1.397       .  A
C2049      C2054   1.405       .  A
C2049      H2059   1.085       .  S
C2050      C2055   1.481       .  S
C2050      C2051   1.412       .  A
C2051      C2056   1.520       .  S
C2051      C2052   1.407       .  A
C2052      C2053   1.412       .  A
C2052      H2057   1.082       .  S
C2053      C2054   1.431       .  A
C2054      C2058   1.522       .  S
C2055      C2060   1.414       .  A
C2055      C2064   1.400       .  A
C2056      F2072   1.383       .  S
C2056      F2073   1.381       .  S
C2056      F2074   1.384       .  S
C2058      F2069   1.384       .  S
C2058      F2070   1.385       .  S
C2058      F2071   1.382       .  S
C2060      C2065   1.520       .  S
C2060      C2061   1.408       .  A
C2061      C2062   1.406       .  A
C2061      H2066   1.083       .  S
C2062      C2063   1.420       .  A
C2063      C2067   1.520       .  S
C2063      C2064   1.403       .  A
C2064      H2068   1.085       .  S
C2065      F2078   1.384       .  S
C2065      F2079   1.383       .  S
C2065      F2080   1.381       .  S
C2067      F2075   1.384       .  S
C2067      F2076   1.381       .  S
C2067      F2077   1.383       .  S
C2081      C2082   1.398       .  A
C2081      C2086   1.412       .  A
C2081      H2091   1.083       .  S
C2082      C2087   1.486       .  S
C2082      C2083   1.411       .  A
C2083      C2088   1.521       .  S
C2083      C2084   1.406       .  A
C2084      C2085   1.412       .  A
C2084      H2089   1.083       .  S
C2085      C2086   1.427       .  A
C2086      C2090   1.512       .  S
C2087      C2092   1.412       .  A
C2087      C2096   1.402       .  A
C2088      F2104   1.383       .  S
C2088      F2105   1.381       .  S
C2088      F2106   1.384       .  S
C2090      F2101   1.377       .  S
C2090      F2102   1.385       .  S
C2090      F2103   1.377       .  S
C2092      C2097   1.518       .  S
C2092      C2093   1.408       .  A
C2093      C2094   1.409       .  A
C2093      H2098   1.083       .  S
C2094      C2095   1.421       .  A
C2095      C2099   1.520       .  S
C2095      C2096   1.405       .  A
C2096      H2100   1.085       .  S
C2097      F2110   1.384       .  S
C2097      F2111   1.383       .  S
C2097      F2112   1.381       .  S
C2099      F2107   1.384       .  S
C2099      F2108   1.381       .  S
C2099      F2109   1.383       .  S
C2113      C2114   1.402       .  A
C2113      C2118   1.405       .  A
C2113      H2123   1.083       .  S
C2114      C2119   1.481       .  S
C2114      C2115   1.415       .  A
C2115      C2120   1.518       .  S
C2115      C2116   1.405       .  A
C2116      C2117   1.401       .  A
C2116      H2121   1.083       .  S
C2117      C2118   1.415       .  A
C2118      C2122   1.518       .  S
C2119      C2124   1.407       .  A
C2119      C2128   1.394       .  A
C2120      F2136   1.383       .  S
C2120      F2137   1.382       .  S
C2120      F2138   1.385       .  S
C2122      F2133   1.384       .  S
C2122      F2134   1.383       .  S
C2122      F2135   1.382       .  S
C2124      C2129   1.522       .  S
C2124      C2125   1.405       .  A
C2125      C2126   1.417       .  A
C2125      H2130   1.074       .  S
C2126      C2127   1.443       .  A
C2127      C2131   1.531       .  S
C2127      C2128   1.410       .  A
C2128      H2132   1.083       .  S
C2129      F2142   1.384       .  S
C2129      F2143   1.383       .  S
C2129      F2144   1.382       .  S
C2131      F2139   1.386       .  S
C2131      F2140   1.377       .  S
C2131      F2141   1.379       .  S
C2145      C2150   1.414       .  A
C2145      H2155   1.083       .  S
C2146      C2151   1.487       .  S
C2146      C2147   1.418   1_556  A
C2147      C2152   1.522       .  S
C2147      C2148   1.404       .  A
C2148      H2153   1.076       .  S
C2149      C2150   1.417       .  A
C2150      C2154   1.517       .  S
C2151      C2156   1.414       .  A
C2152      F2168   1.383       .  S
C2152      F2169   1.381       .  S
C2152      F2170   1.383   1_554  S
C2154      F2165   1.384       .  S
C2154      F2166   1.381       .  S
C2154      F2167   1.382       .  S
C2156      C2161   1.519       .  S
C2156      C2157   1.405       .  A
C2157      C2158   1.408   1_556  A
C2157      H2162   1.083       .  S
C2159      C2163   1.518       .  S
C2159      C2160   1.414       .  A
C2160      H2164   1.083       .  S
C2161      F2174   1.385       .  S
C2161      F2175   1.383       .  S
C2161      F2176   1.380       .  S
C2163      F2171   1.383       .  S
C2163      F2172   1.380       .  S
C2163      F2173   1.385       .  S
C2177      C2178   1.404       .  A
C2177      C2182   1.417       .  A
C2177      H2187   1.083       .  S
C2178      C2183   1.497       .  S
C2178      C2179   1.414       .  A
C2179      C2184   1.520       .  S
C2179      C2180   1.408       .  A
C2180      C2181   1.411       .  A
C2180      H2185   1.082       .  S
C2181      C2182   1.425       .  A
C2182      C2186   1.517       .  S
C2183      C2188   1.416       .  A
C2183      C2192   1.403       .  A
C2184      F2200   1.382       .  S
C2184      F2201   1.381       .  S
C2184      F2202   1.385       .  S
C2186      F2197   1.380       .  S
C2186      F2198   1.385       .  S
C2186      F2199   1.377       .  S
C2188      C2193   1.518       .  S
C2188      C2189   1.414       .  A
C2189      C2190   1.409       .  A
C2189      H2194   1.083       .  S
C2190      C2191   1.424       .  A
C2191      C2195   1.520       .  S
C2191      C2192   1.410       .  A
C2192      H2196   1.084       .  S
C2193      F2206   1.384       .  S
C2193      F2207   1.383       .  S
C2193      F2208   1.382       .  S
C2195      F2203   1.384       .  S
C2195      F2204   1.382       .  S
C2195      F2205   1.383       .  S
C2209      C2210   1.401       .  A
C2209      C2214   1.405       .  A
C2209      H2219   1.085       .  S
C2210      C2215   1.483       .  S
C2210      C2211   1.417       .  A
C2211      C2216   1.521       .  S
C2211      C2212   1.406       .  A
C2212      C2213   1.404       .  A
C2212      H2217   1.083       .  S
C2213      C2214   1.419       .  A
C2214      C2218   1.518       .  S
C2215      C2220   1.411       .  A
C2215      C2224   1.398       .  A
C2216      F2232   1.381       .  S
C2216      F2233   1.382       .  S
C2216      F2234   1.385       .  S
C2218      F2229   1.383       .  S
C2218      F2230   1.383       .  S
C2218      F2231   1.381       .  S
C2220      C2225   1.521       .  S
C2220      C2221   1.406       .  A
C2221      C2222   1.416       .  A
C2221      H2226   1.078       .  S
C2222      C2223   1.432       .  A
C2223      C2227   1.524       .  S
C2223      C2224   1.405       .  A
C2224      H2228   1.085       .  S
C2225      F2238   1.385       .  S
C2225      F2239   1.382       .  S
C2225      F2240   1.382       .  S
C2227      F2235   1.383       .  S
C2227      F2236   1.379       .  S
C2227      F2237   1.385       .  S
C2241      C2246   1.407       .  A
C2241      H2251   1.083       .  S
C2242      C2247   1.479       .  S
C2242      C2243   1.412       .  A
C2243      C2248   1.520       .  S
C2243      C2244   1.406       .  A
C2244      H2249   1.083       .  S
C2245      C2246   1.420       .  A
C2246      C2250   1.519       .  S
C2247      C2252   1.412       .  A
C2248      F2264   1.383       .  S
C2248      F2265   1.382       .  S
C2248      F2266   1.384       .  S
C2250      F2261   1.385       .  S
C2250      F2262   1.382       .  S
C2250      F2263   1.384       .  S
C2252      C2257   1.520       .  S
C2252      C2253   1.404       .  A
C2253      H2258   1.075       .  S
C2254      C2255   1.423       .  A
C2255      C2259   1.516       .  S
C2255      C2256   1.407       .  A
C2256      H2260   1.085       .  S
C2257      F2270   1.384       .  S
C2257      F2271   1.382       .  S
C2257      F2272   1.382       .  S
C2259      F2267   1.384       .  S
C2259      F2268   1.376       .  S
C2259      F2269   1.383       .  S
C2273      C2278   1.409       .  A
C2273      H2283   1.085       .  S
C2274      C2279   1.495       .  S
C2274      C2275   1.418       .  A
C2275      C2280   1.520       .  S
C2275      C2276   1.412       .  A
C2276      C2277   1.405       .  A
C2276      H2281   1.082       .  S
C2278      C2282   1.521       .  S
C2279      C2284   1.418       .  A
C2280      F2296   1.381       .  S
C2280      F2297   1.383       .  S
C2280      F2298   1.385       .  S
C2282      F2293   1.383       .  S
C2282      F2294   1.384       .  S
C2282      F2295   1.380       .  S
C2284      C2289   1.520       .  S
C2284      C2285   1.412       .  A
C2285      C2286   1.408       .  A
C2285      H2290   1.083       .  S
C2287      C2291   1.521       .  S
C2287      C2288   1.411       .  A
C2288      H2292   1.083       .  S
C2289      F2302   1.385       .  S
C2289      F2303   1.381       .  S
C2289      F2304   1.382       .  S
C2291      F2299   1.383       .  S
C2291      F2300   1.384       .  S
C2291      F2301   1.385       .  S
C2305      C2310   1.410       .  A
C2305      H2315   1.083       .  S
C2306      C2311   1.492       .  S
C2306      C2307   1.416   1_554  A
C2307      C2312   1.518       .  S
C2307      C2308   1.410       .  A
C2308      C2309   1.405   1_556  A
C2308      H2313   1.083       .  S
C2310      C2314   1.520       .  S
C2311      C2316   1.417   1_554  A
C2312      F2328   1.383       .  S
C2312      F2329   1.382       .  S
C2312      F2330   1.385       .  S
C2314      F2325   1.385       .  S
C2314      F2326   1.382       .  S
C2314      F2327   1.381       .  S
C2316      C2321   1.520       .  S
C2316      C2317   1.407       .  A
C2317      C2318   1.403   1_556  A
C2317      H2322   1.083       .  S
C2319      C2323   1.516       .  S
C2319      C2320   1.412       .  A
C2320      H2324   1.083       .  S
C2321      F2334   1.385       .  S
C2321      F2335   1.382       .  S
C2321      F2336   1.382       .  S
C2323      F2331   1.384       .  S
C2323      F2332   1.381       .  S
C2323      F2333   1.383       .  S
C2337      C2342   1.412       .  A
C2337      H2347   1.083       .  S
C2338      C2343   1.489       .  S
C2338      C2339   1.418       .  A
C2339      C2344   1.521       .  S
C2339      C2340   1.409       .  A
C2340      C2341   1.405       .  A
C2340      H2345   1.083       .  S
C2342      C2346   1.516       .  S
C2343      C2348   1.417       .  A
C2344      F2360   1.382       .  S
C2344      F2361   1.381       .  S
C2344      F2362   1.385       .  S
C2346      F2357   1.384       .  S
C2346      F2358   1.382       .  S
C2346      F2359   1.383       .  S
C2348      C2353   1.518       .  S
C2348      C2349   1.415       .  A
C2349      H2354   1.083       .  S
C2350      C2351   1.422       .  A
C2351      C2355   1.518       .  S
C2351      C2352   1.404       .  A
C2352      H2356   1.085       .  S
C2353      F2366   1.385       .  S
C2353      F2367   1.382       .  S
C2353      F2368   1.381       .  S
C2355      F2363   1.382       .  S
C2355      F2364   1.379       .  S
C2355      F2365   1.384       .  S
C2369      C2374   1.408       .  A
C2369      H2379   1.083       .  S
C2370      C2375   1.487       .  S
C2370      C2371   1.417       .  A
C2371      C2376   1.519       .  S
C2371      C2372   1.408       .  A
C2372      C2373   1.403       .  A
C2372      H2377   1.083       .  S
C2374      C2378   1.518       .  S
C2375      C2380   1.415       .  A
C2376      F2392   1.382       .  S
C2376      F2393   1.381       .  S
C2376      F2394   1.385       .  S
C2378      F2389   1.385       .  S
C2378      F2390   1.382       .  S
C2378      F2391   1.382       .  S
C2380      C2385   1.519       .  S
C2380      C2381   1.411       .  A
C2381      C2382   1.409       .  A
C2381      H2386   1.083       .  S
C2383      C2387   1.521       .  S
C2383      C2384   1.407       .  A
C2384      H2388   1.083       .  S
C2385      F2398   1.385       .  S
C2385      F2399   1.382       .  S
C2385      F2400   1.382       .  S
C2387      F2395   1.383       .  S
C2387      F2396   1.384       .  S
C2387      F2397   1.385       .  S
C2401      C2406   1.410       .  A
C2401      H2411   1.083       .  S
C2402      C2407   1.488       .  S
C2402      C2403   1.413       .  A
C2403      C2408   1.520       .  S
C2403      C2404   1.408       .  A
C2404      H2409   1.071       .  S
C2405      C2406   1.427   1_554  A
C2406      C2410   1.522       .  S
C2407      C2412   1.416       .  A
C2408      F2424   1.382       .  S
C2408      F2425   1.382       .  S
C2408      F2426   1.385       .  S
C2410      F2421   1.385       .  S
C2410      F2422   1.380       .  S
C2410      F2423   1.377       .  S
C2412      C2417   1.519       .  S
C2412      C2413   1.409       .  A
C2413      H2418   1.083       .  S
C2414      C2415   1.416       .  A
C2415      C2419   1.518       .  S
C2415      C2416   1.408       .  A
C2416      H2420   1.083       .  S
C2417      F2430   1.384       .  S
C2417      F2431   1.382       .  S
C2417      F2432   1.382       .  S
C2419      F2427   1.382       .  S
C2419      F2428   1.383       .  S
C2419      F2429   1.384       .  S
C2433      C2438   1.410       .  A
C2433      H2443   1.083       .  S
C2434      C2439   1.486       .  S
C2434      C2435   1.411       .  A
C2435      C2440   1.520       .  S
C2435      C2436   1.407       .  A
C2436      C2437   1.412       .  A
C2436      H2441   1.082       .  S
C2438      C2442   1.520       .  S
C2439      C2444   1.414       .  A
C2440      F2456   1.382       .  S
C2440      F2457   1.382       .  S
C2440      F2458   1.385       .  S
C2442      F2453   1.385       .  S
C2442      F2454   1.383       .  S
C2442      F2455   1.383       .  S
C2444      C2449   1.520       .  S
C2444      C2445   1.407       .  A
C2445      H2450   1.082       .  S
C2446      C2447   1.419       .  A
C2447      C2451   1.515       .  S
C2447      C2448   1.410       .  A
C2448      H2452   1.083       .  S
C2449      F2462   1.384       .  S
C2449      F2463   1.382   1_556  S
C2449      F2464   1.382       .  S
C2451      F2459   1.385       .  S
C2451      F2460   1.382       .  S
C2451      F2461   1.381       .  S
C2465      C2470   1.408       .  A
C2465      H2475   1.083       .  S
C2466      C2471   1.491       .  S
C2466      C2467   1.415       .  A
C2467      C2472   1.519       .  S
C2467      C2468   1.410       .  A
C2468      H2473   1.083       .  S
C2469      C2470   1.422       .  A
C2470      C2474   1.520       .  S
C2471      C2476   1.416       .  A
C2472      F2488   1.382       .  S
C2472      F2489   1.382       .  S
C2472      F2490   1.385       .  S
C2474      F2485   1.385       .  S
C2474      F2486   1.382       .  S
C2474      F2487   1.381       .  S
C2476      C2481   1.520       .  S
C2476      C2477   1.408       .  A
C2477      H2482   1.083       .  S
C2478      C2479   1.419       .  A
C2479      C2483   1.518       .  S
C2479      C2480   1.410       .  A
C2480      H2484   1.083       .  S
C2481      F2494   1.384       .  S
C2481      F2495   1.382       .  S
C2481      F2496   1.382       .  S
C2483      F2491   1.383       .  S
C2483      F2492   1.384       .  S
C2483      F2493   1.385       .  S
C2497      C2502   1.401       .  A
C2497      H2507   1.085       .  S
C2498      C2503   1.484       .  S
C2498      C2499   1.416       .  A
C2499      C2504   1.519       .  S
C2499      C2500   1.410       .  A
C2500      H2505   1.083       .  S
C2501      C2502   1.422       .  A
C2502      C2506   1.518       .  S
C2503      C2508   1.414       .  A
C2504      F2520   1.382       .  S
C2504      F2521   1.381       .  S
C2504      F2522   1.384       .  S
C2506      F2517   1.384       .  S
C2506      F2518   1.383       .  S
C2506      F2519   1.378       .  S
C2508      C2513   1.521       .  S
C2508      C2509   1.406       .  A
C2509      H2514   1.083       .  S
C2510      C2511   1.417       .  A
C2511      C2515   1.517       .  S
C2511      C2512   1.410       .  A
C2512      H2516   1.083       .  S
C2513      F2526   1.385       .  S
C2513      F2527   1.382       .  S
C2513      F2528   1.381       .  S
C2515      F2523   1.382       .  S
C2515      F2524   1.383       .  S
C2515      F2525   1.384       .  S
C2529      C2534   1.408       .  A
C2529      H2539   1.083       .  S
C2530      C2535   1.490       .  S
C2530      C2531   1.413   1_554  A
C2531      C2536   1.519       .  S
C2531      C2532   1.411       .  A
C2532      C2533   1.412   1_556  A
C2532      H2537   1.082       .  S
C2534      C2538   1.523       .  S
C2535      C2540   1.417       .  A
C2536      F2552   1.383       .  S
C2536      F2553   1.382       .  S
C2536      F2554   1.384       .  S
C2538      F2549   1.385       .  S
C2538      F2550   1.382       .  S
C2538      F2551   1.383       .  S
C2540      C2545   1.519       .  S
C2540      C2541   1.413       .  A
C2541      C2542   1.405       .  A
C2541      H2546   1.083       .  S
C2543      C2547   1.522       .  S
C2543      C2544   1.403       .  A
C2544      H2548   1.085       .  S
C2545      F2558   1.384       .  S
C2545      F2559   1.383       .  S
C2545      F2560   1.382   1_554  S
C2547      F2555   1.384       .  S
C2547      F2556   1.380       .  S
C2547      F2557   1.383       .  S
C2561      C2566   1.408       .  A
C2561      H2571   1.083       .  S
C2562      C2567   1.484       .  S
C2562      C2563   1.416       .  A
C2563      C2568   1.520       .  S
C2563      C2564   1.408       .  A
C2564      H2569   1.083       .  S
C2565      C2566   1.420       .  A
C2566      C2570   1.519       .  S
C2567      C2572   1.414       .  A
C2568      F2584   1.382       .  S
C2568      F2585   1.381       .  S
C2568      F2586   1.385       .  S
C2570      F2581   1.385       .  S
C2570      F2582   1.382       .  S
C2570      F2583   1.383       .  S
C2572      C2577   1.520       .  S
C2572      C2573   1.406       .  A
C2573      C2574   1.407       .  A
C2573      H2578   1.083       .  S
C2575      C2579   1.518       .  S
C2575      C2576   1.409       .  A
C2576      H2580   1.083       .  S
C2577      F2590   1.385       .  S
C2577      F2591   1.382       .  S
C2577      F2592   1.381       .  S
C2579      F2587   1.382       .  S
C2579      F2588   1.383       .  S
C2579      F2589   1.385       .  S
C2593      C2598   1.405       .  A
C2593      H2603   1.083       .  S
C2594      C2599   1.485       .  S
C2594      C2595   1.417       .  A
C2595      C2600   1.519       .  S
C2595      C2596   1.410       .  A
C2596      H2601   1.082       .  S
C2597      C2598   1.421       .  A
C2598      C2602   1.519       .  S
C2599      C2604   1.413       .  A
C2600      F2616   1.383       .  S
C2600      F2617   1.381       .  S
C2600      F2618   1.384       .  S
C2602      F2613   1.385       .  S
C2602      F2614   1.382       .  S
C2602      F2615   1.380       .  S
C2604      C2609   1.520       .  S
C2604      C2605   1.407       .  A
C2605      C2606   1.409       .  A
C2605      H2610   1.083       .  S
C2607      C2611   1.520       .  S
C2607      C2608   1.408       .  A
C2608      H2612   1.083       .  S
C2609      F2622   1.385       .  S
C2609      F2623   1.382       .  S
C2609      F2624   1.381       .  S
C2611      F2619   1.383       .  S
C2611      F2620   1.383       .  S
C2611      F2621   1.385       .  S
