geometry optimzed in LAMMPS
_audit_creation_date              2020-12-01 
_audit_creation_method            'lammps2cif' 
_symmetry_space_group_name_H-M    'P1' 
_symmetry_Int_Tables_number       1 
_symmetry_cell_setting            triclinic 
loop_ 
_symmetry_equiv_pos_as_xyz 
  x,y,z 
_cell_length_a                    74.91083496 
_cell_length_b                    74.48561414398702 
_cell_length_c                    47.53726939025498 
_cell_angle_alpha                 89.97120379727377 
_cell_angle_beta                  89.96276829305856 
_cell_angle_gamma                 90.07316133096725 
loop_ 
_atom_site_label 
_atom_site_type_symbol 
_atom_site_fract_x 
_atom_site_fract_y 
_atom_site_fract_z 
_atom_site_charge 
O1          O  0.48135625  0.81032802  0.97026735    -0.72400
O2          O  0.52057261  0.81147637  0.02780630    -0.73400
O3          O  0.48254506  0.81034085  0.02970784    -0.62000
O4          O  0.51929127  0.81153303  0.96838834    -0.70500
O5          O  0.51846256  0.84134728  0.96823103    -0.70000
O6          O  0.48209042  0.84016410  0.02999142    -0.61300
O7          O  0.51980405  0.84127903  0.02812735    -0.73800
O8          O  0.48076613  0.84014268  0.97014458    -0.72500
Cu9        Cu  0.50096669  0.80987426  0.99904757     1.04600
Cu10       Cu  0.50023290  0.84177845  0.99912563     1.04300
C11         C  0.47495158  0.82509203  0.96107667     0.93800
C12         C  0.52638456  0.82650913  0.03699262     0.92900
C13         C  0.47658911  0.82511280  0.03954354     0.85000
C14         C  0.52465300  0.82659201  0.95867976     0.91300
N15         N  0.63615303  0.81753127  0.79414977    -0.26800
N16         N  0.62968838  0.83274991  0.78410636    -0.34600
C17         C  0.61570599  0.83786082  0.79994388     0.01600
C18         C  0.61315836  0.82514179  0.82071786     0.07600
C19         C  0.62631603  0.81242571  0.81642867    -0.05500
H20         H  0.60786959  0.84984097  0.79638988     0.08200
H21         H  0.62872943  0.80045882  0.82875453     0.09400
Cu22       Cu  0.63991411  0.84560952  0.74899903     0.44200
Cu23       Cu  0.65840756  0.80467462  0.77781255     0.42000
Cu24       Cu  0.68003238  0.82608223  0.71881948     0.43900
N25         N  0.65289831  0.85583998  0.71402864    -0.34200
N26         N  0.66778756  0.84904182  0.70355405    -0.28400
C27         C  0.67307354  0.85912824  0.68161010    -0.04500
C28         C  0.66082267  0.87280139  0.67801000     0.07700
C29         C  0.64818194  0.87028722  0.69879640     0.01500
H30         H  0.68482562  0.85652580  0.66902326     0.09100
H31         H  0.63652020  0.87845920  0.70277511     0.08200
N32         N  0.68926995  0.80262837  0.73721544    -0.35600
N33         N  0.68132308  0.79479098  0.75882110    -0.27800
C34         C  0.69054614  0.77999181  0.76593522    -0.03000
C35         C  0.70497900  0.77843947  0.74789793     0.05600
C36         C  0.70375033  0.79300377  0.72996114     0.03700
H37         H  0.68700176  0.77108490  0.78303385     0.08800
H38         H  0.71274184  0.79640051  0.71294355     0.07600
N39         N  0.36509884  0.81755987  0.79449460    -0.26800
N40         N  0.37103280  0.83306640  0.78464705    -0.34600
C41         C  0.38479696  0.83863646  0.80054264     0.01600
C42         C  0.38771074  0.82593845  0.82123717     0.07600
C43         C  0.37505713  0.81275047  0.81676127    -0.05500
H44         H  0.39218659  0.85093109  0.79709239     0.08200
H45         H  0.37305997  0.80066554  0.82901464     0.09400
Cu46       Cu  0.36042547  0.84587640  0.74992577     0.44200
Cu47       Cu  0.34324186  0.80402649  0.77821390     0.42000
Cu48       Cu  0.32187916  0.82492147  0.71842009     0.43900
N49         N  0.34773357  0.85581507  0.71464976    -0.34200
N50         N  0.33344647  0.84834591  0.70326137    -0.28400
C51         C  0.32836284  0.85817839  0.68091128    -0.04500
C52         C  0.34012935  0.87237386  0.67804374     0.07700
C53         C  0.35224476  0.87046572  0.69975050     0.01500
H54         H  0.31708170  0.85508484  0.66755183     0.09100
H55         H  0.36346899  0.87909729  0.70450215     0.08200
N56         N  0.31241157  0.80179285  0.73777066    -0.35600
N57         N  0.32013069  0.79422281  0.75978476    -0.27800
C58         C  0.31047003  0.77984443  0.76774699    -0.03000
C59         C  0.29602654  0.77826456  0.74976532     0.05600
C60         C  0.29769879  0.79236685  0.73102504     0.03700
H61         H  0.31374000  0.77122757  0.78532327     0.08800
H62         H  0.28877801  0.79565297  0.71389028     0.07600
N63         N  0.63862229  0.82019274  0.20027416    -0.26800
N64         N  0.63242242  0.83541715  0.21066661    -0.34600
C65         C  0.61884837  0.84115214  0.19447699     0.01600
C66         C  0.61633695  0.82885751  0.17300548     0.07600
C67         C  0.62906309  0.81572910  0.17736808    -0.05500
H68         H  0.61125367  0.85324973  0.19829906     0.08200
H69         H  0.63129733  0.80386026  0.16472830     0.09400
Cu70       Cu  0.64272738  0.84754798  0.24651285     0.44200
Cu71       Cu  0.66023609  0.80671353  0.21723070     0.42000
Cu72       Cu  0.68340448  0.82894385  0.27516417     0.43900
N73         N  0.65581134  0.85801754  0.28138288    -0.34200
N74         N  0.67099888  0.85158250  0.29131266    -0.28400
C75         C  0.67616352  0.86156631  0.31345749    -0.04500
C76         C  0.66352267  0.87482046  0.31777675     0.07700
C77         C  0.65080142  0.87213798  0.29714656     0.01500
H78         H  0.68804539  0.85911503  0.32579505     0.09100
H79         H  0.63881363  0.87992581  0.29374486     0.08200
N80         N  0.69173949  0.80513604  0.25680770    -0.35600
N81         N  0.68321486  0.79703641  0.23600304    -0.27800
C82         C  0.69202637  0.78197410  0.22906865    -0.03000
C83         C  0.70676926  0.78052097  0.24636696     0.05600
C84         C  0.70619119  0.79539005  0.26370125     0.03700
H85         H  0.68798379  0.77282972  0.21258386     0.08800
H86         H  0.71559301  0.79890579  0.28007693     0.07600
N87         N  0.36433610  0.81705153  0.20273615    -0.26800
N88         N  0.37195556  0.83119542  0.21454074    -0.34600
C89         C  0.38674716  0.83546925  0.19992898     0.01600
C90         C  0.38858707  0.82330714  0.17818268     0.07600
C91         C  0.37418499  0.81180568  0.18058028    -0.05500
H92         H  0.39552820  0.84657656  0.20483543     0.08200
H93         H  0.37088013  0.80066131  0.16694658     0.09400
Cu94       Cu  0.36193945  0.84415656  0.24984992     0.44200
Cu95       Cu  0.34051489  0.80586964  0.21613207     0.42000
Cu96       Cu  0.31892419  0.82804180  0.27420954     0.43900
N97         N  0.34817517  0.85543774  0.28339889    -0.34200
N98         N  0.33228237  0.84979701  0.29175365    -0.28400
C99         C  0.32666916  0.86018592  0.31311881    -0.04500
C100        C  0.33968126  0.87291815  0.31857939     0.07700
C101        C  0.35315186  0.86948827  0.29941484     0.01500
H102        H  0.31408455  0.85847710  0.32397470     0.09100
H103        H  0.36557028  0.87677276  0.29707748     0.08200
N104        N  0.30858157  0.80541585  0.25446690    -0.35600
N105        N  0.31652801  0.79734925  0.23310358    -0.27800
C106        C  0.30693485  0.78285336  0.22561401    -0.03000
C107        C  0.29226468  0.78170013  0.24320522     0.05600
C108        C  0.29370177  0.79622158  0.26119432     0.03700
H109        H  0.31061421  0.77365583  0.20899456     0.08800
H110        H  0.28480933  0.79963273  0.27831688     0.07600
O111        O  0.67391661  0.96671631  0.47022385    -0.72400
O112        O  0.67441452  0.00531160  0.52910111    -0.73400
O113        O  0.67386892  0.96710542  0.52983179    -0.62000
O114        O  0.67431518  0.00476552  0.46957820    -0.70500
O115        O  0.64466376  0.00519565  0.46987601    -0.70000
O116        O  0.64421511  0.96730487  0.52976635    -0.61300
O117        O  0.64476940  0.00525418  0.52980180    -0.73800
O118        O  0.64427996  0.96722111  0.46959300    -0.72500
Cu119      Cu  0.67515616  0.98595182  0.49970736     1.04600
Cu120      Cu  0.64343156  0.98624466  0.49977743     1.04300
C121        C  0.65909444  0.96107493  0.46033645     0.93800
C122        C  0.65967646  0.01132408  0.53877271     0.92900
C123        C  0.65898473  0.96132260  0.53933254     0.85000
C124        C  0.65954071  0.01086412  0.46020342     0.91300
O125        O  0.35408406  0.96660775  0.46922615    -0.72400
O126        O  0.35270765  0.00405338  0.52948914    -0.73400
O127        O  0.35309743  0.96623124  0.52920728    -0.62000
O128        O  0.35343761  0.00457136  0.46986730    -0.70500
O129        O  0.32378424  0.00409534  0.46919203    -0.70000
O130        O  0.32345109  0.96571612  0.52799697    -0.61300
O131        O  0.32305254  0.00391892  0.52853486    -0.73800
O132        O  0.32444238  0.96594001  0.46852683    -0.72500
Cu133      Cu  0.35437314  0.98536572  0.49947788     1.04600
Cu134      Cu  0.32264011  0.98489094  0.49852041     1.04300
C135        C  0.33948743  0.96039630  0.45932481     0.93800
C136        C  0.33775357  0.00992081  0.53842746     0.92900
C137        C  0.33820394  0.95999464  0.53796634     0.85000
C138        C  0.33860419  0.01042320  0.46034831     0.91300
O139        O  0.51836303  0.13125241  0.03037207    -0.72400
O140        O  0.48152884  0.13188020  0.96912378    -0.73400
O141        O  0.51933046  0.13171145  0.97052506    -0.62000
O142        O  0.48064586  0.13158953  0.02923823    -0.70500
O143        O  0.48063292  0.16140902  0.02892573    -0.70000
O144        O  0.51975304  0.16152500  0.97123210    -0.61300
O145        O  0.48176532  0.16169652  0.96951221    -0.73800
O146        O  0.51870957  0.16107536  0.03064144    -0.72500
Cu147      Cu  0.49995490  0.13056043  0.99979504     1.04600
Cu148      Cu  0.50022110  0.16246805  0.00010751     1.04300
C149        C  0.52435302  0.14605943  0.04007613     0.93800
C150        C  0.47585078  0.14687667  0.95968018     0.92900
C151        C  0.52565095  0.14664315  0.96172714     0.85000
C152        C  0.47452702  0.14652661  0.03823225     0.91300
N153        N  0.33313646  0.12028082  0.70493094    -0.26800
N154        N  0.34893468  0.11477783  0.71379518    -0.34600
C155        C  0.35430735  0.10089953  0.69783542     0.01600
C156        C  0.34116362  0.09749176  0.67813971     0.07600
C157        C  0.32794867  0.10996469  0.68325279    -0.05500
H158        H  0.36674277  0.09374730  0.70061540     0.08200
H159        H  0.31553160  0.11154507  0.67190447     0.09400
Cu160      Cu  0.36208985  0.12596236  0.74771643     0.44200
Cu161      Cu  0.31955176  0.14191621  0.72184957     0.42000
Cu162      Cu  0.34181828  0.16550156  0.77846335     0.43900
N163        N  0.37175807  0.13858268  0.78327428    -0.34200
N164        N  0.36475351  0.15328688  0.79425995    -0.28400
C165        C  0.37446206  0.15809398  0.81689120    -0.04500
C166        C  0.38803491  0.14569118  0.82036137     0.07700
C167        C  0.38588410  0.13350564  0.79873648     0.01500
H168        H  0.37171469  0.16962669  0.83002776     0.09100
H169        H  0.39409690  0.12191118  0.79429190     0.08200
N170        N  0.31778541  0.17380893  0.76060697    -0.35600
N171        N  0.30953304  0.16500145  0.74024911    -0.27800
C172        C  0.29439555  0.17371881  0.73352193    -0.03000
C173        C  0.29306535  0.18876981  0.75044072     0.05600
C174        C  0.30810459  0.18840290  0.76732370     0.03700
H175        H  0.28520131  0.16951150  0.71726203     0.08800
H176        H  0.31178377  0.19808167  0.78327099     0.07600
N177        N  0.63265515  0.15848093  0.79001824    -0.26800
N178        N  0.62575934  0.14337187  0.78022281    -0.34600
C179        C  0.61179685  0.13862390  0.79639999     0.01600
C180        C  0.60976019  0.15141088  0.81719368     0.07600
C181        C  0.62313593  0.16385751  0.81247233    -0.05500
H182        H  0.60397785  0.12653278  0.79361068     0.08200
H183        H  0.62625581  0.17550501  0.82514705     0.09400
Cu184      Cu  0.63623156  0.12918011  0.74651474     0.44200
Cu185      Cu  0.65592358  0.16997457  0.77478407     0.42000
Cu186      Cu  0.67917848  0.14433623  0.72150445     0.43900
N187        N  0.65009570  0.11678623  0.71413487    -0.34200
N188        N  0.66600237  0.12212656  0.70541300    -0.28400
C189        C  0.67139491  0.11142937  0.68427771    -0.04500
C190        C  0.65820171  0.09884492  0.67934260     0.07700
C191        C  0.64488683  0.10260282  0.69865984     0.01500
H192        H  0.68383902  0.11295578  0.67294901     0.09100
H193        H  0.63229390  0.09566275  0.70119321     0.08200
N194        N  0.68911397  0.16774901  0.73912181    -0.35600
N195        N  0.68055027  0.17717501  0.75843498    -0.27800
C196        C  0.69048382  0.19153757  0.76541872    -0.03000
C197        C  0.70600083  0.19114203  0.74971345     0.05600
C198        C  0.70471025  0.17589696  0.73322896     0.03700
H199        H  0.68666682  0.20153996  0.78078045     0.08800
H200        H  0.71433322  0.17106629  0.71804859     0.07600
N201        N  0.66478288  0.12410177  0.29790261    -0.26800
N202        N  0.64895969  0.11861074  0.28908302    -0.34600
C203        C  0.64385649  0.10428055  0.30424057     0.01600
C204        C  0.65719002  0.10044684  0.32334592     0.07600
C205        C  0.67029990  0.11320501  0.31874388    -0.05500
H206        H  0.63148600  0.09703039  0.30119095     0.08200
H207        H  0.68280427  0.11460565  0.32992081     0.09400
Cu208      Cu  0.63535830  0.13003077  0.25587959     0.44200
Cu209      Cu  0.67765167  0.14647804  0.28150262     0.42000
Cu210      Cu  0.65504751  0.16938397  0.22418297     0.43900
N211        N  0.62541092  0.14223642  0.22020560    -0.34200
N212        N  0.63245421  0.15687729  0.20905572    -0.28400
C213        C  0.62324698  0.16132723  0.18589462    -0.04500
C214        C  0.60988033  0.14877114  0.18216182     0.07700
C215        C  0.61161488  0.13682727  0.20421592     0.01500
H216        H  0.62637926  0.17261175  0.17242403     0.09100
H217        H  0.60353733  0.12505788  0.20829663     0.08200
N218        N  0.67873504  0.17805200  0.24158800    -0.35600
N219        N  0.68703309  0.16969329  0.26234574    -0.27800
C220        C  0.70203743  0.17874565  0.26862932    -0.03000
C221        C  0.70319033  0.19344216  0.25098993     0.05600
C222        C  0.68822341  0.19260816  0.23407540     0.03700
H223        H  0.71138733  0.17492202  0.28489837     0.08800
H224        H  0.68446703  0.20183653  0.21753221     0.07600
N225        N  0.33159966  0.12063238  0.29326022    -0.26800
N226        N  0.34774066  0.11560401  0.28522811    -0.34600
C227        C  0.35317990  0.10193776  0.30155380     0.01600
C228        C  0.33977352  0.09816811  0.32065974     0.07600
C229        C  0.32626789  0.11019111  0.31476967    -0.05500
H230        H  0.36593566  0.09526206  0.29957943     0.08200
H231        H  0.31365485  0.11152156  0.32567486     0.09400
Cu232      Cu  0.36162882  0.12727472  0.25230325     0.44200
Cu233      Cu  0.31798543  0.14210275  0.27587728     0.42000
Cu234      Cu  0.34062582  0.16590930  0.21976301     0.43900
N235        N  0.37167033  0.14007727  0.21701434    -0.34200
N236        N  0.36417186  0.15425596  0.20515975    -0.28400
C237        C  0.37375891  0.15891544  0.18230467    -0.04500
C238        C  0.38783639  0.14702127  0.17960605     0.07700
C239        C  0.38609784  0.13527234  0.20197707     0.01500
H240        H  0.37049617  0.16991103  0.16834727     0.09100
H241        H  0.39456601  0.12394174  0.20687503     0.08200
N242        N  0.31640354  0.17411141  0.23715659    -0.35600
N243        N  0.30812645  0.16524443  0.25745560    -0.27800
C244        C  0.29316302  0.17410503  0.26458586    -0.03000
C245        C  0.29193417  0.18931286  0.24800490     0.05600
C246        C  0.30685583  0.18887845  0.23081217     0.03700
H247        H  0.28407905  0.16994007  0.28104721     0.08800
H248        H  0.31067328  0.19874633  0.21521078     0.07600
O249        O  0.01767228  0.65720646  0.46821903    -0.72400
O250        O  0.98157365  0.65740049  0.53078167    -0.73400
O251        O  0.01962934  0.65739055  0.52749173    -0.62000
O252        O  0.97973482  0.65724652  0.47130048    -0.70500
O253        O  0.97994692  0.62742347  0.47113249    -0.70000
O254        O  0.01944022  0.62756966  0.52811179    -0.61300
O255        O  0.98165862  0.62758864  0.53098558    -0.73800
O256        O  0.01759534  0.62738214  0.46820315    -0.72500
Cu257      Cu  0.99965463  0.65835715  0.49945061     1.04600
Cu258      Cu  0.99966052  0.62644699  0.49963146     1.04300
C259        C  0.02328752  0.64229508  0.45837879     0.93800
C260        C  0.97588667  0.64249768  0.54066604     0.92900
C261        C  0.02580450  0.64251711  0.53664277     0.85000
C262        C  0.97364324  0.64231098  0.46225596     0.91300
O263        O  0.98065357  0.34256688  0.53060225    -0.72400
O264        O  0.01973181  0.34267104  0.47241015    -0.73400
O265        O  0.98191044  0.34261729  0.47047230    -0.62000
O266        O  0.01852090  0.34269313  0.53242409    -0.70500
O267        O  0.01893892  0.31287765  0.53176030    -0.70000
O268        O  0.98158998  0.31280447  0.47123660    -0.61300
O269        O  0.01978299  0.31285344  0.47254285    -0.73800
O270        O  0.98083372  0.31275327  0.53064292    -0.72500
Cu271      Cu  0.00019690  0.34369519  0.50148385     1.04600
Cu272      Cu  0.00027672  0.31179350  0.50154379     1.04300
C273        C  0.97460077  0.32760382  0.53974791     0.93800
C274        C  0.02595282  0.32776676  0.46345322     0.92900
C275        C  0.97591119  0.32766418  0.46127180     0.85000
C276        C  0.02461938  0.32777619  0.54157355     0.91300
O277        O  0.14368470  0.46663614  0.03006434    -0.72400
O278        O  0.14344513  0.50524744  0.97096016    -0.73400
O279        O  0.14348975  0.46719041  0.97028636    -0.62000
O280        O  0.14352628  0.50467644  0.03070902    -0.70500
O281        O  0.17318309  0.50487613  0.03057157    -0.70000
O282        O  0.17313996  0.46717455  0.97026559    -0.61300
O283        O  0.17309655  0.50550455  0.97132299    -0.73800
O284        O  0.17333421  0.46666921  0.02971495    -0.72500
Cu285      Cu  0.14249192  0.48593323  0.00051265     1.04600
Cu286      Cu  0.17422349  0.48605680  0.00044665     1.04300
C287        C  0.15856251  0.46053810  0.03908820     0.93800
C288        C  0.15827528  0.51154814  0.96205236     0.92900
C289        C  0.15830284  0.46118997  0.96089272     0.85000
C290        C  0.15834065  0.51074337  0.04002234     0.91300
N291        N  0.13647492  0.65208613  0.70194398    -0.26800
N292        N  0.12924792  0.63782135  0.71398902    -0.34600
C293        C  0.11536330  0.63216006  0.69842410     0.01600
C294        C  0.11367397  0.64351444  0.67557832     0.07600
C295        C  0.12722180  0.65601497  0.67847785    -0.05500
H296        H  0.10702115  0.62075687  0.70358928     0.08200
H297        H  0.13020974  0.66707765  0.66447673     0.09400
Cu298      Cu  0.13852140  0.62681554  0.75108443     0.44200
Cu299      Cu  0.15882015  0.66517592  0.71797530     0.42000
Cu300      Cu  0.17958365  0.64517209  0.77971511     0.43900
N301        N  0.15104126  0.61688170  0.78651853    -0.34200
N302        N  0.16630178  0.62309793  0.79657070    -0.28400
C303        C  0.17102172  0.61316575  0.81903111    -0.04500
C304        C  0.15802612  0.60023724  0.82334441     0.07700
C305        C  0.14556345  0.60299652  0.80238189     0.01500
H306        H  0.18294696  0.61529640  0.83142846     0.09100
H307        H  0.13349639  0.59537100  0.79865070     0.08200
N308        N  0.18896912  0.66828313  0.76000943    -0.35600
N309        N  0.18144235  0.67555623  0.73756066    -0.27800
C310        C  0.19080066  0.69024428  0.73003007    -0.03000
C311        C  0.20485105  0.69232572  0.74867504     0.05600
C312        C  0.20324662  0.67820046  0.76739664     0.03700
H313        H  0.18760859  0.69872488  0.71225638     0.08800
H314        H  0.21191082  0.67525723  0.78500630     0.07600
N315        N  0.16842283  0.34938584  0.79546548    -0.26800
N316        N  0.15293116  0.35544607  0.78611086    -0.34600
C317        C  0.14777960  0.36941708  0.80211777     0.01600
C318        C  0.16071226  0.37236528  0.82233587     0.07600
C319        C  0.17361463  0.35945371  0.81748394    -0.05500
H320        H  0.13556816  0.37692390  0.79914747     0.08200
H321        H  0.18575885  0.35732890  0.82932322     0.09400
Cu322      Cu  0.13963954  0.34460971  0.75176788     0.44200
Cu323      Cu  0.18159520  0.32729585  0.77864169     0.42000
Cu324      Cu  0.16023103  0.30556595  0.71967782     0.43900
N325        N  0.12944701  0.33162143  0.71664282    -0.34200
N326        N  0.13686738  0.31730734  0.70507807    -0.28400
C327        C  0.12712167  0.31228173  0.68264871    -0.04500
C328        C  0.11296005  0.32406486  0.67991881     0.07700
C329        C  0.11485053  0.33614123  0.70177989     0.01500
H330        H  0.13031019  0.30106501  0.66910611     0.09100
H331        H  0.10631264  0.34746088  0.70645352     0.08200
N332        N  0.18362665  0.29625504  0.73799706    -0.35600
N333        N  0.19157767  0.30434287  0.75935305    -0.27800
C334        C  0.20622351  0.29494752  0.76651879    -0.03000
C335        C  0.20748709  0.28018567  0.74891904     0.05600
C336        C  0.19294723  0.28144869  0.73111409     0.03700
H337        H  0.21507653  0.29843845  0.78363807     0.08800
H338        H  0.18931664  0.27221006  0.71451087     0.07600
N339        N  0.17022705  0.35083312  0.20795677    -0.26800
N340        N  0.15450079  0.35682366  0.21635454    -0.34600
C341        C  0.14928544  0.37013688  0.19910745     0.01600
C342        C  0.16243616  0.37274071  0.17909625     0.07600
C343        C  0.17555123  0.36030483  0.18533403    -0.05500
H344        H  0.13689534  0.37747531  0.20113027     0.08200
H345        H  0.18789492  0.35807811  0.17404166     0.09400
Cu346      Cu  0.14116664  0.34680042  0.25131263     0.44200
Cu347      Cu  0.18313829  0.32946325  0.22696766     0.42000
Cu348      Cu  0.16200173  0.30892660  0.28748060     0.43900
N349        N  0.13106641  0.33508186  0.28766643    -0.34200
N350        N  0.13847080  0.32119368  0.30050960    -0.28400
C351        C  0.12854308  0.31683590  0.32310098    -0.04500
C352        C  0.11435693  0.32863168  0.32473867     0.07700
C353        C  0.11635985  0.34003875  0.30196493     0.01500
H354        H  0.13158586  0.30601975  0.33752202     0.09100
H355        H  0.10776333  0.35108584  0.29612094     0.08200
N356        N  0.18514827  0.29904423  0.26891747    -0.35600
N357        N  0.19278540  0.30672113  0.24688865    -0.27800
C358        C  0.20701058  0.29696408  0.23905809    -0.03000
C359        C  0.20843459  0.28239598  0.25694958     0.05600
C360        C  0.19437183  0.28412710  0.27567207     0.03700
H361        H  0.21544132  0.30008685  0.22122971     0.08800
H362        H  0.19092042  0.27506876  0.29263070     0.07600
N363        N  0.13562185  0.65293008  0.29570326    -0.26800
N364        N  0.12843473  0.63854240  0.28395752    -0.34600
C365        C  0.11426764  0.63329133  0.29927765     0.01600
C366        C  0.11238020  0.64504548  0.32151007     0.07600
C367        C  0.12609846  0.65733478  0.31862976    -0.05500
H368        H  0.10586528  0.62188797  0.29438643     0.08200
H369        H  0.12907209  0.66856264  0.33228256     0.09400
Cu370      Cu  0.13804294  0.62663826  0.24776064     0.44200
Cu371      Cu  0.15834441  0.66576360  0.28101100     0.42000
Cu372      Cu  0.18012911  0.64452083  0.22272364     0.43900
N373        N  0.15162645  0.61653843  0.21343769    -0.34200
N374        N  0.16725933  0.62270247  0.20480969    -0.28400
C375        C  0.17281895  0.61283115  0.18282119    -0.04500
C376        C  0.15998355  0.59995457  0.17732781     0.07700
C377        C  0.14672418  0.60270684  0.19702602     0.01500
H378        H  0.18518939  0.61500790  0.17156281     0.09100
H379        H  0.13452333  0.59507510  0.19951402     0.08200
N380        N  0.18987750  0.66744240  0.24208576    -0.35600
N381        N  0.18178483  0.67538807  0.26341283    -0.27800
C382        C  0.19110859  0.69010802  0.27074989    -0.03000
C383        C  0.20576738  0.69145445  0.25312308     0.05600
C384        C  0.20457079  0.67687460  0.23524866     0.03700
H385        H  0.18737869  0.69919812  0.28748702     0.08800
H386        H  0.21357809  0.67349288  0.21826056     0.07600
O387        O  0.82691489  0.46529714  0.03046971    -0.72400
O388        O  0.82756338  0.50363419  0.97170291    -0.73400
O389        O  0.82782460  0.46556741  0.97131199    -0.62000
O390        O  0.82692582  0.50341682  0.03117079    -0.70500
O391        O  0.85657326  0.50345631  0.03176837    -0.70000
O392        O  0.85748759  0.46579897  0.97151534    -0.61300
O393        O  0.85722359  0.50366083  0.97173957    -0.73800
O394        O  0.85656691  0.46538104  0.03135915    -0.72500
Cu395      Cu  0.82628604  0.48448983  0.00112621     1.04600
Cu396      Cu  0.85802572  0.48459450  0.00166200     1.04300
C397        C  0.84161854  0.45924701  0.04010676     0.93800
C398        C  0.84238559  0.50956867  0.96226658     0.92900
C399        C  0.84273654  0.45973161  0.96203525     0.85000
C400        C  0.84166208  0.50935603  0.04096865     0.91300
N401        N  0.86630805  0.31379404  0.70947147    -0.26800
N402        N  0.87287089  0.32913171  0.71889994    -0.34600
C403        C  0.88611637  0.33454497  0.70180600     0.01600
C404        C  0.88806848  0.32194365  0.68074295     0.07600
C405        C  0.87535035  0.30892020  0.68624525    -0.05500
H406        H  0.89367136  0.34682032  0.70442685     0.08200
H407        H  0.87249915  0.29707525  0.67386750     0.09400
Cu408      Cu  0.86317220  0.34234205  0.75389286     0.44200
Cu409      Cu  0.84418967  0.30131648  0.72694497     0.42000
Cu410      Cu  0.82112096  0.32618866  0.78173358     0.43900
N411        N  0.85043850  0.35363395  0.78808678    -0.34200
N412        N  0.83490648  0.34801560  0.79798747    -0.28400
C413        C  0.83025687  0.35834436  0.81998986    -0.04500
C414        C  0.84354667  0.37095933  0.82410831     0.07700
C415        C  0.85613754  0.36760179  0.80354665     0.01500
H416        H  0.81816618  0.35669801  0.83219718     0.09100
H417        H  0.86848380  0.37478996  0.79992733     0.08200
N418        N  0.81133330  0.30282167  0.76363570    -0.35600
N419        N  0.81991048  0.29362283  0.74405586    -0.27800
C420        C  0.81022112  0.27906489  0.73720577    -0.03000
C421        C  0.79485670  0.27907373  0.75327548     0.05600
C422        C  0.79596155  0.29432637  0.76979505     0.03700
H423        H  0.81413038  0.26916420  0.72174005     0.08800
H424        H  0.78641910  0.29886073  0.78532477     0.07600
N425        N  0.86444898  0.65182714  0.70590562    -0.26800
N426        N  0.87071155  0.63656577  0.71612923    -0.34600
C427        C  0.88482541  0.63137692  0.70056371     0.01600
C428        C  0.88764859  0.64409503  0.67979884     0.07600
C429        C  0.87451528  0.65686315  0.68385213    -0.05500
H430        H  0.89254191  0.61933547  0.70425292     0.08200
H431        H  0.87223766  0.66881948  0.67143863     0.09400
Cu432      Cu  0.85985994  0.62379106  0.75105195     0.44200
Cu433      Cu  0.84205305  0.66492974  0.72129379     0.42000
Cu434      Cu  0.81988861  0.64431053  0.78033180     0.43900
N435        N  0.84634895  0.61393202  0.78596071    -0.34200
N436        N  0.83164660  0.62115972  0.79641830    -0.28400
C437        C  0.82627757  0.61139726  0.81874928    -0.04500
C438        C  0.83827535  0.59748450  0.82256649     0.07700
C439        C  0.85080716  0.59952831  0.80148419     0.01500
H440        H  0.81469961  0.61441304  0.83150905     0.09100
H441        H  0.86234994  0.59115243  0.79768638     0.08200
N442        N  0.81060608  0.66743073  0.76052064    -0.35600
N443        N  0.81875004  0.67497698  0.73883765    -0.27800
C444        C  0.80937833  0.68945679  0.73056229    -0.03000
C445        C  0.79462043  0.69111150  0.74790898     0.05600
C446        C  0.79583900  0.67694197  0.76665313     0.03700
H447        H  0.81302840  0.69806444  0.71314351     0.08800
H448        H  0.78662048  0.67372715  0.78345396     0.07600
N449        N  0.86256559  0.65308661  0.29700062    -0.26800
N450        N  0.86885799  0.63761687  0.28767617    -0.34600
C451        C  0.88267556  0.63259935  0.30390794     0.01600
C452        C  0.88524794  0.64558092  0.32427065     0.07600
C453        C  0.87230693  0.65841685  0.31925470    -0.05500
H454        H  0.89024739  0.62036771  0.30113410     0.08200
H455        H  0.86988349  0.67053449  0.33119636     0.09400
Cu456      Cu  0.85827404  0.62397980  0.25344605     0.44200
Cu457      Cu  0.84048468  0.66568238  0.27986027     0.42000
Cu458      Cu  0.81741746  0.64213381  0.22382578     0.43900
N459        N  0.84524030  0.61301546  0.21893933    -0.34200
N460        N  0.82999412  0.61925386  0.20890317    -0.28400
C461        C  0.82498803  0.60917712  0.18681206    -0.04500
C462        C  0.83779783  0.59611280  0.18254108     0.07700
C463        C  0.85047303  0.59895486  0.20319407     0.01500
H464        H  0.81316448  0.61154529  0.17429717     0.09100
H465        H  0.86259540  0.59137109  0.20655670     0.08200
N466        N  0.80925860  0.66670283  0.23976282    -0.35600
N467        N  0.81778808  0.67524036  0.26011141    -0.27800
C468        C  0.80918676  0.69061085  0.26587783    -0.03000
C469        C  0.79454672  0.69182567  0.24831122     0.05600
C470        C  0.79500431  0.67649132  0.23195124     0.03700
H471        H  0.81323117  0.70007027  0.28191849     0.08800
H472        H  0.78556149  0.67260827  0.21584002     0.07600
N473        N  0.83413279  0.34660879  0.20347696    -0.26800
N474        N  0.84978838  0.35228227  0.21278526    -0.34600
C475        C  0.85525211  0.36615757  0.19688111     0.01600
C476        C  0.84235606  0.36944085  0.17675455     0.07600
C477        C  0.82914016  0.35685093  0.18153898    -0.05500
H478        H  0.86756481  0.37347669  0.20009084     0.08200
H479        H  0.81685279  0.35518028  0.16986497     0.09400
Cu480      Cu  0.86285406  0.34159382  0.24733367     0.44200
Cu481      Cu  0.82050229  0.32499741  0.22061340     0.42000
Cu482      Cu  0.84183613  0.30381322  0.28062851     0.43900
N483        N  0.87271004  0.32959039  0.28344721    -0.34200
N484        N  0.86499964  0.31563835  0.29563149    -0.28400
C485        C  0.87432695  0.31115065  0.31874906    -0.04500
C486        C  0.88854394  0.32292518  0.32127665     0.07700
C487        C  0.88711022  0.33443140  0.29856104     0.01500
H488        H  0.87082724  0.30029942  0.33285509     0.09100
H489        H  0.89580912  0.34557920  0.29348548     0.08200
N490        N  0.81869931  0.29433198  0.26193906    -0.35600
N491        N  0.81080897  0.30216129  0.24029482    -0.27800
C492        C  0.79615129  0.29272355  0.23336943    -0.03000
C493        C  0.79480724  0.27826918  0.25145696     0.05600
C494        C  0.80930531  0.27967075  0.26930622     0.03700
H495        H  0.78718366  0.29610510  0.21633861     0.08800
H496        H  0.81276897  0.27078147  0.28645058     0.07600
C497        C  0.83262959  0.54354548  0.91394705     0.30300
C498        C  0.82211778  0.55671263  0.90090238    -0.36100
C499        C  0.83032964  0.56630431  0.87904463     0.16300
C500        C  0.84760364  0.56296362  0.87038781     0.22100
C501        C  0.85814719  0.54988130  0.88355616    -0.34200
C502        C  0.85003057  0.54048073  0.90566886     0.16200
O503        O  0.82766589  0.53305260  0.93484634    -0.26200
C504        C  0.84213756  0.52332343  0.94025413     0.05900
C505        C  0.85649052  0.52736207  0.92280987    -0.31100
O506        O  0.85256385  0.57337433  0.84938411    -0.22900
C507        C  0.83836784  0.58364827  0.84465295    -0.02900
C508        C  0.82412302  0.57989177  0.86252762    -0.17300
H509        H  0.80852569  0.55934795  0.90743790     0.20600
H510        H  0.87176416  0.54729044  0.87710509     0.19000
H511        H  0.86964801  0.52136667  0.92261139     0.19000
H512        H  0.81110135  0.58616125  0.86313564     0.14800
C513        C  0.83572315  0.40136185  0.87872014     0.30300
C514        C  0.82584227  0.40965689  0.90004761    -0.36100
C515        C  0.83434515  0.42381305  0.91399175     0.16300
C516        C  0.85150013  0.42932655  0.90771269     0.22100
C517        C  0.86136335  0.42110286  0.88619365    -0.34200
C518        C  0.85276570  0.40702720  0.87202290     0.16200
O519        O  0.83029718  0.38791809  0.86291980    -0.26200
C520        C  0.84398781  0.38497620  0.84575584     0.05900
C521        C  0.85834664  0.39646683  0.85040412    -0.31100
O522        O  0.85687090  0.44267125  0.92385625    -0.22900
C523        C  0.84286369  0.44580352  0.94036064    -0.02900
C524        C  0.82847785  0.43453525  0.93511649    -0.17300
H525        H  0.81243088  0.40540494  0.90534130     0.20600
H526        H  0.87476096  0.42538077  0.88086003     0.19000
H527        H  0.87102613  0.39695395  0.83950229     0.19000
H528        H  0.81565287  0.43417976  0.94561272     0.14800
C529        C  0.84775006  0.56314999  0.13229543     0.30300
C530        C  0.85860010  0.55137037  0.11688529    -0.36100
C531        C  0.84994519  0.54116088  0.09618686     0.16300
C532        C  0.83183180  0.54232248  0.09115845     0.22100
C533        C  0.82101433  0.55421334  0.10638886    -0.34200
C534        C  0.82969952  0.56455189  0.12688331     0.16200
O535        O  0.85300516  0.57391503  0.15271190    -0.26200
C536        C  0.83815623  0.58244768  0.16024159     0.05900
C537        C  0.82326250  0.57720398  0.14483790    -0.31100
O538        O  0.82649489  0.53131341  0.07113597    -0.22900
C539        C  0.84140637  0.52309135  0.06310261    -0.02900
C540        C  0.85641860  0.52871559  0.07789309    -0.17300
H541        H  0.87279257  0.55023971  0.12076475     0.20600
H542        H  0.80681957  0.55533208  0.10252327     0.19000
H543        H  0.80965483  0.58191492  0.14677858     0.19000
H544        H  0.87006192  0.52415620  0.07565499     0.14800
C545        C  0.85015696  0.42739442  0.09240664     0.30300
C546        C  0.86049275  0.41794313  0.11197059    -0.36100
C547        C  0.85148994  0.40479349  0.12756344     0.16300
C548        C  0.83357666  0.40105004  0.12400172     0.22100
C549        C  0.82318683  0.41061064  0.10457343    -0.34200
C550        C  0.83216973  0.42388520  0.08913603     0.16200
O551        O  0.85588143  0.44021278  0.07556076    -0.26200
C552        C  0.84135253  0.44507796  0.06147872     0.05900
C553        C  0.82618518  0.43541784  0.06906115    -0.31100
O554        O  0.82798200  0.38803962  0.14063676    -0.22900
C555        C  0.84247624  0.38353099  0.15516174    -0.02900
C556        C  0.85747772  0.39352788  0.14795645    -0.17300
H557        H  0.87457254  0.42066475  0.11484797     0.20600
H558        H  0.80910325  0.40790102  0.10171287     0.19000
H559        H  0.81277136  0.43664452  0.06082306     0.19000
H560        H  0.87086257  0.39255630  0.15637895     0.14800
C561        C  0.16586643  0.57017283  0.87869576     0.30300
C562        C  0.17575861  0.56176032  0.89997254    -0.36100
C563        C  0.16704935  0.54787636  0.91443934     0.16300
C564        C  0.14970790  0.54276881  0.90866642     0.22100
C565        C  0.13984398  0.55112438  0.88729549    -0.34200
C566        C  0.14863294  0.56486471  0.87259870     0.16200
O567        O  0.17143609  0.58334541  0.86234889    -0.26200
C568        C  0.15763243  0.58643282  0.84544676     0.05900
C569        C  0.14308730  0.57530901  0.85082178    -0.31100
O570        O  0.14421213  0.52946852  0.92482575    -0.22900
C571        C  0.15829223  0.52589137  0.94090457    -0.02900
C572        C  0.17288112  0.53690393  0.93537378    -0.17300
H573        H  0.18934556  0.56566626  0.90475400     0.20600
H574        H  0.12631635  0.54710262  0.88233217     0.19000
H575        H  0.13028395  0.57499487  0.84029466     0.19000
H576        H  0.18586418  0.53682234  0.94536278     0.14800
C577        C  0.15134247  0.40621925  0.87145769     0.30300
C578        C  0.14081180  0.41884396  0.88573980    -0.36100
C579        C  0.14951675  0.42888419  0.90658956     0.16300
C580        C  0.16738746  0.42675386  0.91283368     0.22100
C581        C  0.17785695  0.41397376  0.89880853    -0.34200
C582        C  0.16912467  0.40385461  0.87808815     0.16200
O583        O  0.14602945  0.39556931  0.85093042    -0.26200
C584        C  0.16055921  0.38615340  0.84450577     0.05900
C585        C  0.17531221  0.39070819  0.86077877    -0.31100
O586        O  0.17288501  0.43786924  0.93260403    -0.22900
C587        C  0.15831504  0.44714141  0.93925057    -0.02900
C588        C  0.14335643  0.44207811  0.92384082    -0.17300
H589        H  0.12683658  0.42077740  0.88082690     0.20600
H590        H  0.19186019  0.41212313  0.90360037     0.19000
H591        H  0.18869002  0.38527292  0.85977750     0.19000
H592        H  0.12996797  0.44748502  0.92498825     0.14800
C593        C  0.16746204  0.54497574  0.08825861     0.30300
C594        C  0.17793346  0.55771597  0.10239282    -0.36100
C595        C  0.16904308  0.56808650  0.12260053     0.16300
C596        C  0.15113665  0.56593418  0.12866145     0.22100
C597        C  0.14064209  0.55332029  0.11436232    -0.34200
C598        C  0.14948611  0.54307230  0.09400090     0.16200
O599        O  0.17300691  0.53378708  0.06866477    -0.26200
C600        C  0.15836034  0.52471980  0.06167656     0.05900
C601        C  0.14331386  0.52995551  0.07667318    -0.31100
O602        O  0.14563042  0.57680777  0.14867437    -0.22900
C603        C  0.16014345  0.58616038  0.15534522    -0.02900
C604        C  0.17511570  0.58136637  0.13976977    -0.17300
H605        H  0.19201219  0.55940850  0.09796448     0.20600
H606        H  0.12657150  0.55160155  0.11883409     0.19000
H607        H  0.12984450  0.52476550  0.07512726     0.19000
H608        H  0.18852846  0.58671221  0.14115804     0.14800
C609        C  0.16836335  0.42633048  0.08724790     0.30300
C610        C  0.17918191  0.41409974  0.10185929    -0.36100
C611        C  0.17055584  0.40362498  0.12231248     0.16300
C612        C  0.15256601  0.40520393  0.12812137     0.22100
C613        C  0.14172383  0.41725802  0.11327863    -0.34200
C614        C  0.15031030  0.42762870  0.09272211     0.16200
O615        O  0.17366980  0.43771105  0.06769164    -0.26200
C616        C  0.15879487  0.44629767  0.06043737     0.05900
C617        C  0.14383521  0.44053661  0.07523725    -0.31100
O618        O  0.14737667  0.39456479  0.14871426    -0.22900
C619        C  0.16217738  0.38591672  0.15605959    -0.02900
C620        C  0.17702203  0.39093680  0.14026947    -0.17300
H621        H  0.19334960  0.41295246  0.09775101     0.20600
H622        H  0.12760435  0.41858464  0.11765655     0.19000
H623        H  0.13024672  0.44535715  0.07362625     0.19000
H624        H  0.19062777  0.38621546  0.14216053     0.14800
C625        C  0.07765098  0.33302568  0.63363753     0.30300
C626        C  0.06357085  0.34298746  0.62204215    -0.36100
C627        C  0.05501186  0.33529462  0.59874724     0.16300
C628        C  0.05980251  0.31879902  0.58788523     0.22100
C629        C  0.07399939  0.30892737  0.59929195    -0.34200
C630        C  0.08268758  0.31671819  0.62237951     0.16200
O631        O  0.08750835  0.33768647  0.65541213    -0.26200
C632        C  0.09908770  0.32425662  0.65802660     0.05900
C633        C  0.09674354  0.31084234  0.63800459    -0.31100
O634        O  0.04970652  0.31395073  0.56649738    -0.22900
C635        C  0.03846003  0.32761385  0.56338631    -0.02900
C636        C  0.04118310  0.34133244  0.58274705    -0.17300
H637        H  0.05958622  0.35584901  0.63056806     0.20600
H638        H  0.07797973  0.29606264  0.59077282     0.19000
H639        H  0.10425087  0.29854891  0.63539283     0.19000
H640        H  0.03384626  0.35376502  0.58496295     0.14800
C641        C  0.93992959  0.31768873  0.58682991     0.30300
C642        C  0.92722139  0.30685583  0.60039888    -0.36100
C643        C  0.91745104  0.31509955  0.62198441     0.16300
C644        C  0.92010099  0.33275050  0.62980684     0.22100
C645        C  0.93260789  0.34365384  0.61596296    -0.34200
C646        C  0.94229076  0.33545025  0.59425753     0.16200
O647        O  0.95092416  0.31259580  0.56669492    -0.26200
C648        C  0.96031917  0.32732947  0.56095402     0.05900
C649        C  0.95547222  0.34199096  0.57736278    -0.31100
O650        O  0.91006888  0.33748879  0.65132329    -0.22900
C651        C  0.90076520  0.32273893  0.65722492    -0.02900
C652        C  0.90471453  0.30840032  0.63956442    -0.17300
H653        H  0.92527009  0.29290584  0.59478806     0.20600
H654        H  0.93481327  0.35749799  0.62196926     0.19000
H655        H  0.96112370  0.35537481  0.57727095     0.19000
H656        H  0.89933680  0.29490879  0.64008717     0.14800
C657        C  0.05662253  0.33636515  0.40939147     0.30300
C658        C  0.06435157  0.34605115  0.38716105    -0.36100
C659        C  0.07841079  0.33753576  0.37297067     0.16300
C660        C  0.08462837  0.32075938  0.38042876     0.22100
C661        C  0.07681774  0.31101458  0.40252515    -0.34200
C662        C  0.06257119  0.31941077  0.41641953     0.16200
O663        O  0.04316295  0.34166216  0.42523138    -0.26200
C664        C  0.04028604  0.32782358  0.44235333     0.05900
C665        C  0.05193986  0.31358389  0.43782297    -0.31100
O666        O  0.09805174  0.31544708  0.36454001    -0.22900
C667        C  0.10036177  0.32890974  0.34648185    -0.02900
C668        C  0.08847363  0.34300089  0.35066166    -0.17300
H669        H  0.05963679  0.35924735  0.38120667     0.20600
H670        H  0.08143458  0.29775568  0.40832433     0.19000
H671        H  0.05248660  0.30083907  0.44874177     0.19000
H672        H  0.08751674  0.35550716  0.33915957     0.14800
C673        C  0.94073541  0.31869005  0.41482659     0.30300
C674        C  0.92632370  0.30895946  0.40373739    -0.36100
C675        C  0.91796884  0.31647982  0.38013812     0.16300
C676        C  0.92349485  0.33241252  0.36809573     0.22100
C677        C  0.93778178  0.34226756  0.37939993    -0.34200
C678        C  0.94602634  0.33483746  0.40321077     0.16200
O679        O  0.95059700  0.31399629  0.43657243    -0.26200
C680        C  0.96219797  0.32742441  0.43920528     0.05900
C681        C  0.95995189  0.34082421  0.41911684    -0.31100
O682        O  0.91395869  0.33676568  0.34579575    -0.22900
C683        C  0.90210576  0.32350681  0.34364825    -0.02900
C684        C  0.90393681  0.31053776  0.36451106    -0.17300
H685        H  0.92196969  0.29636316  0.41282293     0.20600
H686        H  0.94217620  0.35483010  0.37024557     0.19000
H687        H  0.96764666  0.35301495  0.41639510     0.19000
H688        H  0.89617349  0.29842904  0.36757884     0.14800
C689        C  0.05700931  0.63417666  0.58981903     0.30300
C690        C  0.06513890  0.62449905  0.61164034    -0.36100
C691        C  0.07882588  0.63342831  0.62611157     0.16300
C692        C  0.08431614  0.65059535  0.61932185     0.22100
C693        C  0.07611661  0.66030664  0.59762176    -0.34200
C694        C  0.06226578  0.65148082  0.58342495     0.16200
O695        O  0.04370401  0.62859227  0.57391598    -0.26200
C696        C  0.04027589  0.64258322  0.55738752     0.05900
C697        C  0.05138479  0.65720264  0.56236392    -0.31100
O698        O  0.09737158  0.65634330  0.63557979    -0.22900
C699        C  0.10017659  0.64275124  0.65317773    -0.02900
C700        C  0.08899677  0.62814601  0.64832864    -0.17300
H701        H  0.06094998  0.61103287  0.61715417     0.20600
H702        H  0.08012123  0.67387327  0.59238821     0.19000
H703        H  0.05136766  0.67016005  0.55203694     0.19000
H704        H  0.08846762  0.61548780  0.65949415     0.14800
C705        C  0.07724927  0.63574214  0.36788667     0.30300
C706        C  0.06367276  0.62548419  0.38041089    -0.36100
C707        C  0.05399646  0.63399364  0.40186205     0.16300
C708        C  0.05728698  0.65147077  0.41007305     0.22100
C709        C  0.07092393  0.66165294  0.39770819    -0.34200
C710        C  0.08075623  0.65306834  0.37661080     0.16200
O711        O  0.08792094  0.63055593  0.34739067    -0.26200
C712        C  0.09847113  0.64469388  0.34321305     0.05900
C713        C  0.09468941  0.65904511  0.36087718    -0.31100
O714        O  0.04671499  0.65676024  0.43057905    -0.22900
C715        C  0.03665633  0.64243751  0.43585021    -0.02900
C716        C  0.04057313  0.62785024  0.41865564    -0.17300
H717        H  0.06093266  0.61180702  0.37401869     0.20600
H718        H  0.07376374  0.67528028  0.40424954     0.19000
H719        H  0.10106163  0.67208586  0.36165956     0.19000
H720        H  0.03449210  0.61465715  0.41868268     0.14800
C721        C  0.92188920  0.63508058  0.63135143     0.30300
C722        C  0.93460877  0.62465480  0.61710539    -0.36100
C723        C  0.94460405  0.63356414  0.59636406     0.16300
C724        C  0.94236271  0.65153757  0.59021201     0.22100
C725        C  0.92954152  0.66191644  0.60427554    -0.34200
C726        C  0.91944397  0.65297062  0.62482499     0.16200
O727        O  0.91114148  0.62954916  0.65161055    -0.26200
C728        C  0.90158885  0.64405539  0.65794482     0.05900
C729        C  0.90614712  0.65899178  0.64188002    -0.31100
O730        O  0.95319480  0.65713960  0.57013566    -0.22900
C731        C  0.96240269  0.64253111  0.56317118    -0.02900
C732        C  0.95760323  0.62746253  0.57876666    -0.17300
H733        H  0.93655687  0.61057279  0.62182536     0.20600
H734        H  0.92754283  0.67598107  0.59947876     0.19000
H735        H  0.90060024  0.67238870  0.64284060     0.19000
H736        H  0.96291284  0.61398489  0.57728884     0.14800
C737        C  0.93855694  0.65147924  0.41587930     0.30300
C738        C  0.92550300  0.66198196  0.40262406    -0.36100
C739        C  0.91572474  0.65347570  0.38130333     0.16300
C740        C  0.91867108  0.63588322  0.37345102     0.22100
C741        C  0.93154978  0.62530898  0.38696732    -0.34200
C742        C  0.94124107  0.63377537  0.40840126     0.16200
O743        O  0.94956083  0.65683855  0.43581025    -0.26200
C744        C  0.95927214  0.64232453  0.44134776     0.05900
C745        C  0.95465059  0.62755213  0.42502907    -0.31100
O746        O  0.90839253  0.63081624  0.35241613    -0.22900
C747        C  0.89863928  0.64529605  0.34684548    -0.02900
C748        C  0.90256795  0.65979185  0.36422614    -0.17300
H749        H  0.92326341  0.67586750  0.40832584     0.20600
H750        H  0.93396802  0.61150044  0.38099228     0.19000
H751        H  0.96057049  0.61429995  0.42504061     0.19000
H752        H  0.89678940  0.67310245  0.36400547     0.14800
C753        C  0.23495525  0.24376446  0.26388438     0.30300
C754        C  0.24027704  0.22711944  0.27493723    -0.36100
C755        C  0.25542622  0.21932685  0.26254659     0.16300
C756        C  0.26471960  0.22736027  0.24083639     0.22100
C757        C  0.25937759  0.24395756  0.22975984    -0.34200
C758        C  0.24423760  0.25172157  0.24209965     0.16200
O759        O  0.22118885  0.25347338  0.27221325    -0.26200
C760        C  0.22167405  0.26780982  0.25547845     0.05900
C761        C  0.23573670  0.26741420  0.23635519    -0.31100
O762        O  0.27863351  0.21784947  0.23267964    -0.22900
C763        C  0.27826111  0.20349643  0.24934132    -0.02900
C764        C  0.26408315  0.20367916  0.26830865    -0.17300
H765        H  0.23314020  0.22071574  0.29201916     0.20600
H766        H  0.26655638  0.25039751  0.21275399     0.19000
H767        H  0.23919659  0.27723785  0.22047889     0.19000
H768        H  0.26076086  0.19384371  0.28423980     0.14800
C769        C  0.74101360  0.22026940  0.26082956     0.30300
C770        C  0.75735218  0.22532194  0.27283191    -0.36100
C771        C  0.76502699  0.24109977  0.26223131     0.16300
C772        C  0.75717604  0.25118965  0.24125659     0.22100
C773        C  0.74083457  0.24614120  0.22926739    -0.34200
C774        C  0.73315998  0.23037066  0.23987142     0.16200
O775        O  0.73151489  0.20600539  0.26751891    -0.26200
C776        C  0.71742001  0.20697735  0.25060699     0.05900
C777        C  0.71770510  0.22186280  0.23294428    -0.31100
O778        O  0.76664276  0.26548440  0.23461354    -0.22900
C779        C  0.78071212  0.26456642  0.25159005    -0.02900
C780        C  0.78044538  0.24966582  0.26923315    -0.17300
H781        H  0.76362137  0.21751262  0.28928405     0.20600
H782        H  0.73454786  0.25396517  0.21284860     0.19000
H783        H  0.70798421  0.22582659  0.21730486     0.19000
H784        H  0.79013820  0.24575101  0.28494518     0.14800
C785        C  0.73498482  0.22726832  0.76149900     0.30300
C786        C  0.74066018  0.24343077  0.77369350    -0.36100
C787        C  0.75674665  0.25047482  0.76342223     0.16300
C788        C  0.76661517  0.24216423  0.74265344     0.22100
C789        C  0.76096856  0.22595656  0.73051416    -0.34200
C790        C  0.74484676  0.21892976  0.74074612     0.16200
O791        O  0.72016380  0.21853784  0.76751980    -0.26200
C792        C  0.72051967  0.20441599  0.75042261     0.05900
C793        C  0.73559102  0.20391973  0.73331741    -0.31100
O794        O  0.78123534  0.25114274  0.73623735    -0.22900
C795        C  0.78070966  0.26538443  0.75310627    -0.02900
C796        C  0.76576255  0.26568886  0.77046428    -0.17300
H797        H  0.73300351  0.25010753  0.78991251     0.20600
H798        H  0.76855711  0.21934933  0.71414605     0.19000
H799        H  0.73909027  0.19409805  0.71748506     0.19000
H800        H  0.76211068  0.27560659  0.78606124     0.14800
C801        C  0.23412193  0.24172470  0.74061506     0.30300
C802        C  0.23903269  0.22488798  0.72976626    -0.36100
C803        C  0.25509607  0.21768360  0.73997655     0.16300
C804        C  0.26556406  0.22642524  0.75954955     0.22100
C805        C  0.26062938  0.24320455  0.77043924    -0.34200
C806        C  0.24460438  0.25040490  0.76022837     0.16200
O807        O  0.21974307  0.25102560  0.73390100    -0.26200
C808        C  0.22102023  0.26582525  0.74950054     0.05900
C809        C  0.23622516  0.26614557  0.76628401    -0.31100
O810        O  0.28013315  0.21738381  0.76593610    -0.22900
C811        C  0.27905246  0.20264468  0.75022953    -0.02900
C812        C  0.26372867  0.20208346  0.73366390    -0.17300
H813        H  0.23095378  0.21794446  0.71434654     0.20600
H814        H  0.26876838  0.25020111  0.78572075     0.19000
H815        H  0.24051841  0.27648837  0.78076534     0.19000
H816        H  0.25961903  0.19177518  0.71898947     0.14800
C817        C  0.55961876  0.15628621  0.91333990     0.30300
C818        C  0.57193733  0.16707165  0.89883987    -0.36100
C819        C  0.58108655  0.15875247  0.87665960     0.16300
C820        C  0.57825212  0.14106756  0.86918496     0.22100
C821        C  0.56616782  0.13020559  0.88398413    -0.34200
C822        C  0.55708228  0.13849384  0.90623133     0.16200
O823        O  0.54904243  0.16149085  0.93395361    -0.26200
C824        C  0.53974736  0.14679310  0.94027496     0.05900
C825        C  0.54425910  0.13204960  0.92383599    -0.31100
O826        O  0.58781694  0.13620434  0.84720817    -0.22900
C827        C  0.59700791  0.15091287  0.84065984    -0.02900
C828        C  0.59341823  0.16535210  0.85831336    -0.17300
H829        H  0.57402865  0.18104330  0.90418081     0.20600
H830        H  0.56381713  0.11633413  0.87828026     0.19000
H831        H  0.53852070  0.11870540  0.92423938     0.19000
H832        H  0.59891644  0.17878816  0.85751064     0.14800
C833        C  0.44566402  0.13820908  0.90503076     0.30300
C834        C  0.43683898  0.12790147  0.88461139    -0.36100
C835        C  0.42350957  0.13677187  0.86926231     0.16300
C836        C  0.41904683  0.15451216  0.87384042     0.22100
C837        C  0.42804382  0.16487892  0.89397469    -0.34200
C838        C  0.44146792  0.15606034  0.90915465     0.16200
O839        O  0.45829414  0.13256734  0.92220895    -0.26200
C840        C  0.46234275  0.14704881  0.93731487     0.05900
C841        C  0.45236180  0.16206940  0.93002091    -0.31100
O842        O  0.40589107  0.15997741  0.85752787    -0.22900
C843        C  0.40199867  0.14560441  0.84209947    -0.02900
C844        C  0.41256549  0.13079175  0.84843271    -0.17300
H845        H  0.44005796  0.11391749  0.88106350     0.20600
H846        H  0.42473574  0.17882410  0.89766654     0.19000
H847        H  0.45285334  0.17537490  0.93914216     0.19000
H848        H  0.41212544  0.11751130  0.83921860     0.14800
C849        C  0.55828924  0.15466923  0.08867116     0.30300
C850        C  0.57139995  0.16490311  0.10219838    -0.36100
C851        C  0.58053774  0.15631913  0.12403701     0.16300
C852        C  0.57695813  0.13890256  0.13227577     0.22100
C853        C  0.56399735  0.12854788  0.11845671    -0.34200
C854        C  0.55494077  0.13710294  0.09638761     0.16200
O855        O  0.54793737  0.16016374  0.06802636    -0.26200
C856        C  0.53795368  0.14588414  0.06220753     0.05900
C857        C  0.54175429  0.13111028  0.07908007    -0.31100
O858        O  0.58677273  0.13383643  0.15388279    -0.22900
C859        C  0.59682008  0.14817160  0.15926303    -0.02900
C860        C  0.59357460  0.16249838  0.14129342    -0.17300
H861        H  0.57418941  0.17865563  0.09625061     0.20600
H862        H  0.56108730  0.11485580  0.12460224     0.19000
H863        H  0.53552634  0.11798817  0.07885096     0.19000
H864        H  0.59968644  0.17567322  0.14129152     0.14800
C865        C  0.44466389  0.13857794  0.09362065     0.30300
C866        C  0.43739624  0.12931934  0.11664445    -0.36100
C867        C  0.42327098  0.13786403  0.13061056     0.16300
C868        C  0.41657673  0.15429398  0.12232509     0.22100
C869        C  0.42393272  0.16362210  0.09940991    -0.34200
C870        C  0.43822832  0.15518652  0.08567292     0.16200
O871        O  0.45807133  0.13317117  0.07775466    -0.26200
C872        C  0.46040568  0.14659992  0.05965876     0.05900
C873        C  0.44847974  0.16067283  0.06361597    -0.31100
O874        O  0.40321728  0.15970653  0.13831633    -0.22900
C875        C  0.40143215  0.14662933  0.15721413    -0.02900
C876        C  0.41358745  0.13272360  0.15346161    -0.17300
H877        H  0.44248216  0.11640541  0.12332732     0.20600
H878        H  0.41895305  0.17660920  0.09288490     0.19000
H879        H  0.44751924  0.17310052  0.05190040     0.19000
H880        H  0.41501572  0.12054148  0.16567107     0.14800
C881        C  0.33157600  0.06703284  0.62427949     0.30300
C882        C  0.32095155  0.05841285  0.60409791    -0.36100
C883        C  0.32935469  0.04486770  0.58854181     0.16300
C884        C  0.34704133  0.04028362  0.59240312     0.22100
C885        C  0.35761892  0.04881047  0.61270191    -0.34200
C886        C  0.34917520  0.06222770  0.62842034     0.16200
O887        O  0.32647847  0.08008056  0.64112620    -0.26200
C888        C  0.34095548  0.08357481  0.65635408     0.05900
C889        C  0.35548808  0.07286782  0.64942133    -0.31100
O890        O  0.35226792  0.02745937  0.57527118    -0.22900
C891        C  0.33771793  0.02365248  0.56043006    -0.02900
C892        C  0.32301370  0.03401433  0.56777890    -0.17300
H893        H  0.30711490  0.06200904  0.60078168     0.20600
H894        H  0.37146323  0.04523037  0.61599581     0.19000
H895        H  0.36876700  0.07298992  0.65838469     0.19000
H896        H  0.30971311  0.03371923  0.55889933     0.14800
C897        C  0.34765062  0.04232255  0.40829640     0.30300
C898        C  0.35812117  0.05179538  0.38887854    -0.36100
C899        C  0.34906099  0.06436722  0.37228898     0.16300
C900        C  0.33098239  0.06758560  0.37484210     0.22100
C901        C  0.32049391  0.05808274  0.39422906    -0.34200
C902        C  0.32952185  0.04535213  0.41059077     0.16200
O903        O  0.35330527  0.02974922  0.42561550    -0.26200
C904        C  0.33858185  0.02458278  0.43899262    -0.01300
C905        C  0.32338164  0.03380344  0.43051917    -0.31100
O906        O  0.32530549  0.07994796  0.35715806    -0.22900
C907        C  0.33991733  0.08456717  0.34297332    -0.02900
C908        C  0.35508244  0.07530800  0.35146346    -0.17300
H909        H  0.37230513  0.04940668  0.38666944     0.20600
H910        H  0.30627579  0.06033550  0.39623055     0.19000
H911        H  0.30981111  0.03219722  0.43796067     0.19000
H912        H  0.36857772  0.07650977  0.34352972     0.14800
C913        C  0.66697960  0.06872155  0.62439055     0.30300
C914        C  0.67718173  0.06032637  0.60340842    -0.36100
C915        C  0.66853327  0.04673993  0.58815982     0.16300
C916        C  0.65098853  0.04192528  0.59297293     0.22100
C917        C  0.64083200  0.05026062  0.61401456    -0.34200
C918        C  0.64953264  0.06368325  0.62946453     0.16200
O919        O  0.67236276  0.08170568  0.64123673    -0.26200
C920        C  0.65821074  0.08492823  0.65740659     0.05900
C921        C  0.64363600  0.07408728  0.65105929    -0.31100
O922        O  0.64552437  0.02897739  0.57615303    -0.22900
C923        C  0.65979471  0.02530903  0.56053647    -0.02900
C924        C  0.67452594  0.03590962  0.56709968    -0.17300
H925        H  0.69091584  0.06406029  0.59935894     0.20600
H926        H  0.62711829  0.04648346  0.61813685     0.19000
H927        H  0.63056240  0.07398366  0.66076325     0.19000
H928        H  0.68767000  0.03570534  0.55762776     0.14800
C929        C  0.65029715  0.04219363  0.40738236     0.30300
C930        C  0.63957917  0.05221037  0.38902266    -0.36100
C931        C  0.64854219  0.06478986  0.37222374     0.16300
C932        C  0.66677057  0.06744504  0.37354098     0.22100
C933        C  0.67751427  0.05725027  0.39161905    -0.34200
C934        C  0.66856876  0.04460057  0.40830463     0.16200
O935        O  0.64469042  0.03001740  0.42546434    -0.26200
C936        C  0.65957653  0.02450465  0.43799483     0.05900
C937        C  0.67485112  0.03304080  0.42809418    -0.31100
O938        O  0.67226056  0.08034226  0.35661832    -0.22900
C939        C  0.65737770  0.08587197  0.34411247    -0.02900
C940        C  0.64222272  0.07663728  0.35289978    -0.17300
H941        H  0.62524353  0.05044962  0.38810828     0.20600
H942        H  0.69181701  0.05918683  0.39282177     0.19000
H943        H  0.68852827  0.03118083  0.43481963     0.19000
H944        H  0.62851890  0.07861212  0.34639766     0.14800
C945        C  0.24181349  0.72031469  0.23991323     0.30300
C946        C  0.25720430  0.72643877  0.22605724    -0.36100
C947        C  0.26406978  0.74293170  0.23531436     0.16300
C948        C  0.25636905  0.75270333  0.25678448     0.22100
C949        C  0.24099234  0.74656474  0.27066405    -0.34200
C950        C  0.23410902  0.73008504  0.26138109     0.16200
O951        O  0.23299717  0.70540310  0.23437051    -0.26200
C952        C  0.21947327  0.70561191  0.25253062     0.05900
C953        C  0.21951174  0.72063012  0.26992235    -0.31100
O954        O  0.26511797  0.76767771  0.26220518    -0.22900
C955        C  0.27858615  0.76751374  0.24394648    -0.02900
C956        C  0.27858508  0.75245266  0.22663313    -0.17300
H957        H  0.26335753  0.71890215  0.20918614     0.20600
H958        H  0.23481833  0.75411890  0.28749566     0.19000
H959        H  0.21005026  0.72418631  0.28619825     0.19000
H960        H  0.28800965  0.74891825  0.21029215     0.14800
C961        C  0.33135784  0.92681161  0.40943592     0.30300
C962        C  0.32124612  0.91392809  0.39500311    -0.36100
C963        C  0.33020444  0.90445587  0.37381074     0.16300
C964        C  0.34786619  0.90753615  0.36703797     0.22100
C965        C  0.35802101  0.92039213  0.38157175    -0.34200
C966        C  0.34910189  0.92974247  0.40300428     0.16200
O967        O  0.32563442  0.93717859  0.43000415    -0.26200
C968        C  0.33992957  0.94676939  0.43704427     0.05900
C969        C  0.35494337  0.94269037  0.42102595    -0.31100
O970        O  0.35353494  0.89703402  0.34654103    -0.22900
C971        C  0.33934108  0.88702809  0.34027316    -0.02900
C972        C  0.32445683  0.89108158  0.35657280    -0.17300
H973        H  0.30737727  0.91139430  0.40005668     0.20600
H974        H  0.37192499  0.92284076  0.37665419     0.19000
H975        H  0.36814778  0.94855730  0.42229968     0.19000
H976        H  0.31132926  0.88501378  0.35591206     0.14800
C977        C  0.74283452  0.75157687  0.25756750     0.30300
C978        C  0.75845433  0.74538503  0.27051900    -0.36100
C979        C  0.76581847  0.72968398  0.25922632     0.16300
C980        C  0.75832529  0.72062543  0.23681479     0.22100
C981        C  0.74267386  0.72680666  0.22388209    -0.34200
C982        C  0.73532815  0.74254682  0.23513546     0.16200
O983        O  0.73380043  0.76607301  0.26453545    -0.26200
C984        C  0.72032815  0.76631754  0.24634276     0.05900
C985        C  0.72058170  0.75200634  0.22756429    -0.31100
O986        O  0.76744425  0.70616770  0.22981806    -0.22900
C987        C  0.78095860  0.70602357  0.24796391    -0.02900
C988        C  0.78063000  0.72033959  0.26671738    -0.17300
H989        H  0.76447104  0.75234615  0.28810742     0.20600
H990        H  0.73666572  0.71985713  0.20627678     0.19000
H991        H  0.71132614  0.74905145  0.21071826     0.19000
H992        H  0.78986281  0.72335609  0.28356709     0.14800
C993        C  0.65373525  0.90858084  0.36684372     0.30300
C994        C  0.64294880  0.92092614  0.38129377    -0.36100
C995        C  0.65123252  0.93042994  0.40318365     0.16300
C996        C  0.66898225  0.92813740  0.41007637     0.22100
C997        C  0.67974226  0.91574966  0.39570929    -0.34200
C998        C  0.67139305  0.90606491  0.37410760     0.16200
O999        O  0.64868817  0.89809518  0.34594914    -0.26200
C1000       C  0.66324993  0.88861788  0.33993320     0.05900
C1001       C  0.67778501  0.89299226  0.35680678    -0.31100
O1002       O  0.67404026  0.93854358  0.43103848    -0.22900
C1003       C  0.65930605  0.94749379  0.43790223    -0.02900
C1004       C  0.64467326  0.94297871  0.42131323    -0.17300
H1005       H  0.62903671  0.92287838  0.37598345     0.20600
H1006       H  0.69362385  0.91371306  0.40113807     0.19000
H1007       H  0.69110176  0.88737890  0.35636661     0.19000
H1008       H  0.63125570  0.94832354  0.42227245     0.14800
C1009       C  0.24123543  0.72103647  0.76097010     0.30300
C1010       C  0.25630436  0.72756678  0.77525667    -0.36100
C1011       C  0.26498983  0.74227824  0.76284843     0.16300
C1012       C  0.25922225  0.75006052  0.73812431     0.22100
C1013       C  0.24415568  0.74353348  0.72384298    -0.34200
C1014       C  0.23547204  0.72881838  0.73624462     0.16200
O1015       O  0.23122237  0.70729789  0.76864956    -0.26200
C1016       C  0.21884487  0.70626838  0.74862772     0.05900
C1017       C  0.22081732  0.71934922  0.72792419    -0.31100
O1018       O  0.26932014  0.76369806  0.73030675    -0.22900
C1019       C  0.28175883  0.76464871  0.75022937    -0.02900
C1020       C  0.27973824  0.75164236  0.77102736    -0.17300
H1021       H  0.26095954  0.72156173  0.79464136     0.20600
H1022       H  0.23954289  0.74949903  0.70440306     0.19000
H1023       H  0.21275398  0.72146647  0.70933832     0.19000
H1024       H  0.28788964  0.74944582  0.78949503     0.14800
C1025       C  0.34663539  0.93019996  0.59318067     0.30300
C1026       C  0.35653707  0.92239611  0.61496487    -0.36100
C1027       C  0.34811885  0.90842369  0.62958252     0.16300
C1028       C  0.33118595  0.90238581  0.62306868     0.22100
C1029       C  0.32118448  0.91033680  0.60146471    -0.34200
C1030       C  0.32954154  0.92445774  0.58702365     0.16200
O1031       O  0.35199298  0.94333690  0.57664248    -0.26200
C1032       C  0.33808571  0.94618112  0.55988752     0.05900
C1033       C  0.32369676  0.93490074  0.56542544    -0.31100
O1034       O  0.32610249  0.88888274  0.63914808    -0.22900
C1035       C  0.33990683  0.88638386  0.65630458    -0.02900
C1036       C  0.35395175  0.89818869  0.65137130    -0.17300
H1037       H  0.36989227  0.92688072  0.62011568     0.20600
H1038       H  0.30785097  0.90581674  0.59625655     0.19000
H1039       H  0.31091216  0.93436218  0.55485233     0.19000
H1040       H  0.36668983  0.89896857  0.66203772     0.14800
C1041       C  0.74155774  0.74990383  0.73649629     0.30300
C1042       C  0.75727433  0.74381809  0.72349914    -0.36100
C1043       C  0.76487735  0.72819860  0.73489642     0.16300
C1044       C  0.75751392  0.71919505  0.75748808     0.22100
C1045       C  0.74179840  0.72525409  0.77041597    -0.34200
C1046       C  0.73422017  0.74085604  0.75905970     0.16200
O1047       O  0.73227768  0.76428225  0.72949690    -0.26200
C1048       C  0.71882768  0.76441956  0.74782989     0.05900
C1049       C  0.71936613  0.75015461  0.76670421    -0.31100
O1050       O  0.76691008  0.70500700  0.76493347    -0.22900
C1051       C  0.78050278  0.70487696  0.74690057    -0.02900
C1052       C  0.77991809  0.71898892  0.72768438    -0.17300
H1053       H  0.76320038  0.75081182  0.70584595     0.20600
H1054       H  0.73593545  0.71833274  0.78819092     0.19000
H1055       H  0.71020076  0.74710612  0.78365511     0.19000
H1056       H  0.78925341  0.72207932  0.71098388     0.14800
C1057       C  0.65206270  0.90761659  0.63053252     0.30300
C1058       C  0.64165282  0.92046795  0.61657194    -0.36100
C1059       C  0.65030900  0.93019327  0.59530485     0.16300
C1060       C  0.66805386  0.92763643  0.58853479     0.22100
C1061       C  0.67842915  0.91472495  0.60238688    -0.34200
C1062       C  0.66970806  0.90482931  0.62336934     0.16200
O1063       O  0.64664738  0.89686471  0.65084359    -0.26200
C1064       C  0.66095604  0.88695562  0.65653313     0.05900
C1065       C  0.67569171  0.89129185  0.64007667    -0.31100
O1066       O  0.67346479  0.93828492  0.56810125    -0.22900
C1067       C  0.65895858  0.94764665  0.56150302    -0.02900
C1068       C  0.64412886  0.94317190  0.57767853    -0.17300
H1069       H  0.62774921  0.92262634  0.62177097     0.20600
H1070       H  0.69229010  0.91245816  0.59702287     0.19000
H1071       H  0.68887795  0.88537259  0.64043212     0.19000
H1072       H  0.63080784  0.94875409  0.57668466     0.14800
C1073       C  0.55854816  0.81790690  0.91006281     0.30300
C1074       C  0.57154383  0.80756606  0.89644218    -0.36100
C1075       C  0.58157229  0.81643660  0.87581222     0.16300
C1076       C  0.57889089  0.83422202  0.86881315     0.22100
C1077       C  0.56597992  0.84462911  0.88262891    -0.34200
C1078       C  0.55604852  0.83578841  0.90347849     0.16200
O1079       O  0.54772240  0.81230551  0.93005365    -0.26200
C1080       C  0.53826174  0.82680465  0.93654935     0.05900
C1081       C  0.54286036  0.84184286  0.92075017    -0.31100
O1082       O  0.58959317  0.83966165  0.84849037    -0.22900
C1083       C  0.59933387  0.82521022  0.84262655    -0.02900
C1084       C  0.59496754  0.81038821  0.85902648    -0.17300
H1085       H  0.57369826  0.79357701  0.90160211     0.20600
H1086       H  0.56383762  0.85862349  0.87749382     0.19000
H1087       H  0.53728247  0.85522629  0.92183826     0.19000
H1088       H  0.60066501  0.79704673  0.85840939     0.14800
C1089       C  0.41789563  0.81734852  0.87572543     0.30300
C1090       C  0.42679550  0.80694210  0.89590822    -0.36100
C1091       C  0.43992694  0.81585446  0.91160985     0.16300
C1092       C  0.44386679  0.83381815  0.90792216     0.22100
C1093       C  0.43506149  0.84418041  0.88760487    -0.34200
C1094       C  0.42208212  0.83522375  0.87170026     0.16200
O1095       O  0.40520349  0.81175855  0.85866540    -0.26200
C1096       C  0.40134282  0.82619230  0.84336786     0.05900
C1097       C  0.41144393  0.84118382  0.85049415    -0.31100
O1098       O  0.45653221  0.83945254  0.92498817    -0.22900
C1099       C  0.46088381  0.82488752  0.93962739    -0.02900
C1100       C  0.45102710  0.80977870  0.93217939    -0.17300
H1101       H  0.42375118  0.79287135  0.89904955     0.20600
H1102       H  0.43817761  0.85822428  0.88433962     0.19000
H1103       H  0.41093941  0.85452808  0.84150372     0.19000
H1104       H  0.45190387  0.79633310  0.94072093     0.14800
C1105       C  0.42382986  0.83156082  0.13156638     0.30300
C1106       C  0.43723175  0.84171930  0.11849368    -0.36100
C1107       C  0.44643863  0.83318744  0.09662193     0.16300
C1108       C  0.44292916  0.81574854  0.08844574     0.22100
C1109       C  0.42944588  0.80561670  0.10141594    -0.34200
C1110       C  0.42004283  0.81425562  0.12301547     0.16200
O1111       O  0.41340933  0.83697223  0.15221307    -0.26200
C1112       C  0.40269440  0.82302461  0.15675259     0.05900
C1113       C  0.40616459  0.80852127  0.13917037    -0.31100
O1114       O  0.45320222  0.81046997  0.06750880    -0.22900
C1115       C  0.46323996  0.82479707  0.06204816    -0.02900
C1116       C  0.45960275  0.83932870  0.07943723    -0.17300
H1117       H  0.44014619  0.85538613  0.12473931     0.20600
H1118       H  0.42637906  0.79203040  0.09492802     0.19000
H1119       H  0.39948451  0.79563595  0.13847318     0.19000
H1120       H  0.46578627  0.85247374  0.07939857     0.14800
C1121       C  0.55833331  0.83610943  0.08881544     0.30300
C1122       C  0.56729430  0.84653752  0.10896287    -0.36100
C1123       C  0.58112658  0.83793665  0.12359057     0.16300
C1124       C  0.58595127  0.82035091  0.11852304     0.22100
C1125       C  0.57694516  0.80990703  0.09848466    -0.34200
C1126       C  0.56298136  0.81843334  0.08411509     0.16200
O1127       O  0.54491921  0.84137074  0.07283255    -0.26200
C1128       C  0.54082834  0.82681517  0.05791517     0.05900
C1129       C  0.55159032  0.81213747  0.06411843    -0.31100
O1130       O  0.59913058  0.81494638  0.13482426    -0.22900
C1131       C  0.60270507  0.82919712  0.15072985    -0.02900
C1132       C  0.59193338  0.84390292  0.14465108    -0.17300
H1133       H  0.56363047  0.86033756  0.11312690     0.20600
H1134       H  0.58045801  0.79603638  0.09458187     0.19000
H1135       H  0.55114743  0.79881724  0.05504350     0.19000
H1136       H  0.59195302  0.85700684  0.15448209     0.14800
loop_ 
_geom_bond_atom_site_label_1 
_geom_bond_atom_site_label_2 
_geom_bond_distance 
_geom_bond_site_symmetry_2 
_ccdc_geom_bond_type 
O1           Cu9   2.008       .  S
O1           C11   1.277       .  A
O2           Cu9   2.011   1_554  S
O2           C12   1.278       .  A
O3           Cu9   2.007   1_554  S
O3           C13   1.277       .  A
O4           Cu9   2.005       .  S
O4           C14   1.277       .  A
O5          Cu10   2.005       .  S
O5           C14   1.277       .  A
O6          Cu10   2.003   1_554  S
O6           C13   1.277       .  A
O7          Cu10   2.014   1_554  S
O7           C12   1.278       .  A
O8          Cu10   2.010       .  S
O8           C11   1.277       .  A
Cu9         Cu10   2.377       .  S
C11        C1099   1.467       .  S
C12        C1128   1.470       .  S
C13        C1115   1.464       .  S
C14        C1080   1.465       .  S
N15          N16   1.322       .  A
N15          C19   1.344       .  A
N15         Cu23   2.074       .  S
N16          C17   1.345       .  A
N16         Cu22   2.070       .  S
C17          C18   1.381       .  A
C17          H20   1.082       .  S
C18        C1083   1.468       .  S
C18          C19   1.383       .  A
C19          H21   1.082       .  S
Cu22         N25   2.070       .  S
Cu23         N33   2.075       .  S
Cu24         N26   2.073       .  S
Cu24         N32   2.073       .  S
N25          N26   1.323       .  A
N25          C29   1.344       .  A
N26          C27   1.344       .  A
C27          C28   1.382       .  A
C27          H30   1.082       .  S
C28        C1064   1.467       .  S
C28          C29   1.381       .  A
C29          H31   1.082       .  S
N32          N33   1.322       .  A
N32          C36   1.346       .  A
N33          C34   1.345       .  A
C34          C35   1.384       .  A
C34          H37   1.082       .  S
C35        C1048   1.473       .  S
C35          C36   1.383       .  A
C36          H38   1.082       .  S
N39          N40   1.322       .  A
N39          C43   1.344       .  A
N39         Cu47   2.072       .  S
N40          C41   1.344       .  A
N40         Cu46   2.066       .  S
C41          C42   1.382       .  A
C41          H44   1.082       .  S
C42        C1096   1.467       .  S
C42          C43   1.381       .  A
C43          H45   1.082       .  S
Cu46         N49   2.066       .  S
Cu47         N57   2.073       .  S
Cu48         N50   2.076       .  S
Cu48         N56   2.076       .  S
N49          N50   1.322       .  A
N49          C53   1.343       .  A
N50          C51   1.346       .  A
C51          C52   1.382       .  A
C51          H54   1.082       .  S
C52        C1035   1.468       .  S
C52          C53   1.382       .  A
C53          H55   1.082       .  S
N56          N57   1.322       .  A
N56          C60   1.345       .  A
N57          C58   1.346       .  A
C58          C59   1.384       .  A
C58          H61   1.082       .  S
C59        C1019   1.473       .  S
C59          C60   1.382       .  A
C60          H62   1.082       .  S
N63          N64   1.322       .  A
N63          C67   1.345       .  A
N63         Cu71   2.070       .  S
N64          C65   1.346       .  A
N64         Cu70   2.078       .  S
C65          C66   1.384       .  A
C65          H68   1.082       .  S
C66        C1131   1.472       .  S
C66          C67   1.382       .  A
C67          H69   1.082       .  S
Cu70         N73   2.078       .  S
Cu71         N81   2.070       .  S
Cu72         N74   2.074       .  S
Cu72         N80   2.074       .  S
N73          N74   1.322       .  A
N73          C77   1.345       .  A
N74          C75   1.346       .  A
C75          C76   1.384       .  A
C75          H78   1.082       .  S
C76        C1000   1.472       .  S
C76          C77   1.382       .  A
C77          H79   1.082       .  S
N80          N81   1.323       .  A
N80          C84   1.345       .  A
N81          C82   1.344       .  A
C82          C83   1.382       .  A
C82          H85   1.082       .  S
C83         C984   1.468       .  S
C83          C84   1.381       .  A
C84          H86   1.082       .  S
N87          N88   1.323       .  A
N87          C91   1.344       .  A
N87         Cu95   2.068       .  S
N88          C89   1.345       .  A
N88         Cu94   2.077       .  S
C89          C90   1.382       .  A
C89          H92   1.082       .  S
C90        C1112   1.468       .  S
C90          C91   1.381       .  A
C91          H93   1.082       .  S
Cu94         N97   2.077       .  S
Cu95        N105   2.068       .  S
Cu96         N98   2.079       .  S
Cu96        N104   2.079       .  S
N97          N98   1.323       .  A
N97         C101   1.347       .  A
N98          C99   1.345       .  A
C99         C100   1.384       .  A
C99         H102   1.082       .  S
C100        C971   1.473       .  S
C100        C101   1.383       .  A
C101        H103   1.082       .  S
N104        N105   1.322       .  A
N104        C108   1.346       .  A
N105        C106   1.345       .  A
C106        C107   1.383       .  A
C106        H109   1.082       .  S
C107        C955   1.471       .  S
C107        C108   1.383       .  A
C108        H110   1.082       .  S
O111       Cu119   2.007       .  S
O111        C121   1.277       .  A
O112       Cu119   2.009   1_545  S
O112        C122   1.277       .  A
O113       Cu119   2.007       .  S
O113        C123   1.277       .  A
O114       Cu119   2.004   1_545  S
O114        C124   1.277       .  A
O115       Cu120   2.005   1_545  S
O115        C124   1.277       .  A
O116       Cu120   2.006       .  S
O116        C123   1.277       .  A
O117       Cu120   2.013   1_545  S
O117        C122   1.278       .  A
O118       Cu120   2.018       .  S
O118        C121   1.279       .  A
Cu119      Cu120   2.377       .  S
C121       C1003   1.470       .  S
C122        C923   1.469       .  S
C123       C1067   1.465       .  S
C124        C936   1.465       .  S
O125       Cu133   2.006       .  S
O125        C135   1.277       .  A
O126       Cu133   1.998   1_545  S
O126        C136   1.276       .  A
O127       Cu133   2.009       .  S
O127        C137   1.277       .  A
O128       Cu133   2.008   1_545  S
O128        C138   1.277       .  A
O129       Cu134   1.999   1_545  S
O129        C138   1.276       .  A
O130       Cu134   2.001       .  S
O130        C137   1.276       .  A
O131       Cu134   2.012   1_545  S
O131        C136   1.278       .  A
O132       Cu134   2.011       .  S
O132        C135   1.278       .  A
Cu133      Cu134   2.378       .  S
C135        C968   1.468       .  S
C136        C891   1.463       .  S
C137       C1032   1.464       .  S
C138        C904   1.464       .  S
O139       Cu147   2.005   1_554  S
O139        C149   1.277       .  A
O140       Cu147   2.011       .  S
O140        C150   1.277       .  A
O141       Cu147   2.012       .  S
O141        C151   1.278       .  A
O142       Cu147   2.014   1_554  S
O142        C152   1.278       .  A
O143       Cu148   2.008       .  S
O143        C152   1.277       .  A
O144       Cu148   2.007   1_556  S
O144        C151   1.277       .  A
O145       Cu148   2.008   1_556  S
O145        C150   1.278       .  A
O146       Cu148   2.010       .  S
O146        C149   1.277       .  A
Cu147      Cu148   2.377   1_556  S
C149        C856   1.465       .  S
C150        C840   1.468       .  S
C151        C824   1.468       .  S
C152        C872   1.468       .  S
N153        N154   1.322       .  A
N153        C157   1.343       .  A
N153       Cu161   2.070       .  S
N154        C155   1.344       .  A
N154       Cu160   2.066       .  S
C155        C156   1.382       .  A
C155        H158   1.082       .  S
C156        C888   1.466       .  S
C156        C157   1.380       .  A
C157        H159   1.082       .  S
Cu160       N163   2.066       .  S
Cu161       N171   2.071       .  S
Cu162       N164   2.085       .  S
Cu162       N170   2.085       .  S
N163        N164   1.323       .  A
N163        C167   1.343       .  A
N164        C165   1.347       .  A
C165        C166   1.385       .  A
C165        H168   1.082       .  S
C166        C843   1.471       .  S
C166        C167   1.381       .  A
C167        H169   1.082       .  S
N170        N171   1.323       .  A
N170        C174   1.346       .  A
N171        C172   1.346       .  A
C172        C173   1.384       .  A
C172        H175   1.082       .  S
C173        C811   1.474       .  S
C173        C174   1.384       .  A
C174        H176   1.082       .  S
N177        N178   1.323       .  A
N177        C181   1.345       .  A
N177       Cu185   2.071       .  S
N178        C179   1.345       .  A
N178       Cu184   2.074       .  S
C179        C180   1.382       .  A
C179        H182   1.082       .  S
C180        C827   1.469       .  S
C180        C181   1.382       .  A
C181        H183   1.082       .  S
Cu184       N187   2.074       .  S
Cu185       N195   2.071       .  S
Cu186       N188   2.072       .  S
Cu186       N194   2.073       .  S
N187        N188   1.322       .  A
N187        C191   1.345       .  A
N188        C189   1.345       .  A
C189        C190   1.382       .  A
C189        H192   1.082       .  S
C190        C920   1.471       .  S
C190        C191   1.384       .  A
C191        H193   1.082       .  S
N194        N195   1.322       .  A
N194        C198   1.345       .  A
N195        C196   1.344       .  A
C196        C197   1.381       .  A
C196        H199   1.082       .  S
C197        C792   1.469       .  S
C197        C198   1.383       .  A
C198        H200   1.082       .  S
N201        N202   1.322       .  A
N201        C205   1.346       .  A
N201       Cu209   2.076       .  S
N202        C203   1.343       .  A
N202       Cu208   2.063       .  S
C203        C204   1.380       .  A
C203        H206   1.082       .  S
C204        C939   1.467       .  S
C204        C205   1.383       .  A
C205        H207   1.082       .  S
Cu208       N211   2.064       .  S
Cu209       N219   2.076       .  S
Cu210       N212   2.061       .  S
Cu210       N218   2.061       .  S
N211        N212   1.321       .  A
N211        C215   1.345       .  A
N212        C213   1.341       .  A
C213        C214   1.381       .  A
C213        H216   1.082       .  S
C214        C859   1.465       .  S
C214        C215   1.381       .  A
C215        H217   1.082       .  S
N218        N219   1.322       .  A
N218        C222   1.344       .  A
N219        C220   1.344       .  A
C220        C221   1.381       .  A
C220        H223   1.082       .  S
C221        C776   1.466       .  S
C221        C222   1.381       .  A
C222        H224   1.082       .  S
N225        N226   1.322       .  A
N225        C229   1.345       .  A
N225       Cu233   2.070       .  S
N226        C227   1.344       .  A
N226       Cu232   2.069       .  S
C227        C228   1.382       .  A
C227        H230   1.082       .  S
C228        C907   1.466       .  S
C228        C229   1.381       .  A
C229        H231   1.082       .  S
Cu232       N235   2.070       .  S
Cu233       N243   2.070       .  S
Cu234       N236   2.086       .  S
Cu234       N242   2.086       .  S
N235        N236   1.323       .  A
N235        C239   1.344       .  A
N236        C237   1.347       .  A
C237        C238   1.384       .  A
C237        H240   1.082       .  S
C238        C875   1.473       .  S
C238        C239   1.383       .  A
C239        H241   1.082       .  S
N242        N243   1.323       .  A
N242        C246   1.347       .  A
N243        C244   1.345       .  A
C244        C245   1.383       .  A
C244        H247   1.082       .  S
C245        C763   1.474       .  S
C245        C246   1.385       .  A
C246        H248   1.082       .  S
O249       Cu257   2.008   1_455  S
O249        C259   1.277       .  A
O250       Cu257   2.014       .  S
O250        C260   1.278       .  A
O251       Cu257   2.006   1_455  S
O251        C261   1.277       .  A
O252       Cu257   2.007       .  S
O252        C262   1.277       .  A
O253       Cu258   2.006       .  S
O253        C262   1.277       .  A
O254       Cu258   2.009   1_455  S
O254        C261   1.277       .  A
O255       Cu258   2.011       .  S
O255        C260   1.278       .  A
O256       Cu258   2.010   1_455  S
O256        C259   1.277       .  A
Cu257      Cu258   2.377       .  S
C259        C715   1.466       .  S
C260        C731   1.471       .  S
C261        C696   1.466       .  S
C262        C744   1.466       .  S
O263       Cu271   2.016   1_655  S
O263        C273   1.279       .  A
O264       Cu271   2.014       .  S
O264        C274   1.278       .  A
O265       Cu271   2.015   1_655  S
O265        C275   1.278       .  A
O266       Cu271   2.014       .  S
O266        C276   1.278       .  A
O267       Cu272   2.007       .  S
O267        C276   1.277       .  A
O268       Cu272   2.011   1_655  S
O268        C275   1.277       .  A
O269       Cu272   2.010       .  S
O269        C274   1.278       .  A
O270       Cu272   2.009   1_655  S
O270        C273   1.277       .  A
Cu271      Cu272   2.376       .  S
C273        C648   1.470       .  S
C274        C664   1.469       .  S
C275        C680   1.469       .  S
C276        C635   1.467       .  S
O277       Cu285   2.011       .  S
O277        C287   1.278       .  A
O278       Cu285   2.011   1_556  S
O278        C288   1.277       .  A
O279       Cu285   2.005   1_556  S
O279        C289   1.277       .  A
O280       Cu285   2.004       .  S
O280        C290   1.277       .  A
O281       Cu286   2.006       .  S
O281        C290   1.277       .  A
O282       Cu286   2.011   1_556  S
O282        C289   1.278       .  A
O283       Cu286   2.005   1_556  S
O283        C288   1.277       .  A
O284       Cu286   2.006       .  S
O284        C287   1.276       .  A
Cu285      Cu286   2.377       .  S
C287        C616   1.468       .  S
C288        C571   1.467       .  S
C289        C587   1.468       .  S
C290        C600   1.464       .  S
N291        N292   1.322       .  A
N291        C295   1.346       .  A
N291       Cu299   2.081       .  S
N292        C293   1.344       .  A
N292       Cu298   2.065       .  S
C293        C294   1.382       .  A
C293        H296   1.082       .  S
C294        C699   1.470       .  S
C294        C295   1.383       .  A
C295        H297   1.082       .  S
Cu298       N301   2.066       .  S
Cu299       N309   2.082       .  S
Cu300       N302   2.081       .  S
Cu300       N308   2.081       .  S
N301        N302   1.323       .  A
N301        C305   1.343       .  A
N302        C303   1.346       .  A
C303        C304   1.384       .  A
C303        H306   1.082       .  S
C304        C568   1.470       .  S
C304        C305   1.381       .  A
C305        H307   1.082       .  S
N308        N309   1.323       .  A
N308        C312   1.346       .  A
N309        C310   1.347       .  A
C310        C311   1.385       .  A
C310        H313   1.082       .  S
C311       C1016   1.475       .  S
C311        C312   1.383       .  A
C312        H314   1.082       .  S
N315        N316   1.323       .  A
N315        C319   1.345       .  A
N315       Cu323   2.080       .  S
N316        C317   1.346       .  A
N316       Cu322   2.076       .  S
C317        C318   1.383       .  A
C317        H320   1.082       .  S
C318        C584   1.472       .  S
C318        C319   1.384       .  A
C319        H321   1.082       .  S
Cu322       N325   2.076       .  S
Cu323       N333   2.080       .  S
Cu324       N326   2.077       .  S
Cu324       N332   2.077       .  S
N325        N326   1.323       .  A
N325        C329   1.345       .  A
N326        C327   1.346       .  A
C327        C328   1.384       .  A
C327        H330   1.082       .  S
C328        C632   1.471       .  S
C328        C329   1.382       .  A
C329        H331   1.082       .  S
N332        N333   1.322       .  A
N332        C336   1.346       .  A
N333        C334   1.346       .  A
C334        C335   1.385       .  A
C334        H337   1.082       .  S
C335        C808   1.475       .  S
C335        C336   1.383       .  A
C336        H338   1.082       .  S
N339        N340   1.322       .  A
N339        C343   1.346       .  A
N339       Cu347   2.071       .  S
N340        C341   1.345       .  A
N340       Cu346   2.076       .  S
C341        C342   1.382       .  A
C341        H344   1.082       .  S
C342        C619   1.470       .  S
C342        C343   1.383       .  A
C343        H345   1.082       .  S
Cu346       N349   2.077       .  S
Cu347       N357   2.071       .  S
Cu348       N350   2.081       .  S
Cu348       N356   2.081       .  S
N349        N350   1.324       .  A
N349        C353   1.346       .  A
N350        C351   1.345       .  A
C351        C352   1.382       .  A
C351        H354   1.082       .  S
C352        C667   1.472       .  S
C352        C353   1.384       .  A
C353        H355   1.082       .  S
N356        N357   1.322       .  A
N356        C360   1.348       .  A
N357        C358   1.343       .  A
C358        C359   1.383       .  A
C358        H361   1.082       .  S
C359        C760   1.474       .  S
C359        C360   1.385       .  A
C360        H362   1.082       .  S
N363        N364   1.323       .  A
N363        C367   1.343       .  A
N363       Cu371   2.072       .  S
N364        C365   1.344       .  A
N364       Cu370   2.066       .  S
C365        C366   1.380       .  A
C365        H368   1.082       .  S
C366        C712   1.466       .  S
C366        C367   1.382       .  A
C367        H369   1.082       .  S
Cu370       N373   2.065       .  S
Cu371       N381   2.072       .  S
Cu372       N374   2.072       .  S
Cu372       N380   2.072       .  S
N373        N374   1.322       .  A
N373        C377   1.344       .  A
N374        C375   1.344       .  A
C375        C376   1.382       .  A
C375        H378   1.082       .  S
C376        C603   1.466       .  S
C376        C377   1.380       .  A
C377        H379   1.082       .  S
N380        N381   1.321       .  A
N380        C384   1.345       .  A
N381        C382   1.346       .  A
C382        C383   1.384       .  A
C382        H385   1.082       .  S
C383        C952   1.471       .  S
C383        C384   1.382       .  A
C384        H386   1.082       .  S
O387       Cu395   1.997       .  S
O387        C397   1.276       .  A
O388       Cu395   1.999   1_556  S
O388        C398   1.276       .  A
O389       Cu395   2.003   1_556  S
O389        C399   1.278       .  A
O390       Cu395   2.008       .  S
O390        C400   1.277       .  A
O391       Cu396   2.009       .  S
O391        C400   1.278       .  A
O392       Cu396   2.004   1_556  S
O392        C399   1.276       .  A
O393       Cu396   2.010   1_556  S
O393        C398   1.278       .  A
O394       Cu396   2.013       .  S
O394        C397   1.278       .  A
Cu395      Cu396   2.378       .  S
C397        C552   1.465       .  S
C398        C504   1.464       .  S
C399        C523   1.463       .  S
C400        C539   1.468       .  S
N401        N402   1.322       .  A
N401        C405   1.345       .  A
N401       Cu409   2.072       .  S
N402        C403   1.344       .  A
N402       Cu408   2.065       .  S
C403        C404   1.381       .  A
C403        H406   1.082       .  S
C404        C651   1.468       .  S
C404        C405   1.384       .  A
C405        H407   1.082       .  S
Cu408       N411   2.064       .  S
Cu409       N419   2.072       .  S
Cu410       N412   2.075       .  S
Cu410       N418   2.075       .  S
N411        N412   1.322       .  A
N411        C415   1.343       .  A
N412        C413   1.345       .  A
C413        C414   1.382       .  A
C413        H416   1.082       .  S
C414        C520   1.467       .  S
C414        C415   1.381       .  A
C415        H417   1.082       .  S
N418        N419   1.323       .  A
N418        C422   1.345       .  A
N419        C420   1.344       .  A
C420        C421   1.381       .  A
C420        H423   1.082       .  S
C421        C795   1.470       .  S
C421        C422   1.384       .  A
C422        H424   1.082       .  S
N425        N426   1.323       .  A
N425        C429   1.344       .  A
N425       Cu433   2.075       .  S
N426        C427   1.347       .  A
N426       Cu432   2.078       .  S
C427        C428   1.384       .  A
C427        H430   1.082       .  S
C428        C728   1.473       .  S
C428        C429   1.383       .  A
C429        H431   1.082       .  S
Cu432       N435   2.077       .  S
Cu433       N443   2.075       .  S
Cu434       N436   2.083       .  S
Cu434       N442   2.083       .  S
N435        N436   1.323       .  A
N435        C439   1.344       .  A
N436        C437   1.347       .  A
C437        C438   1.385       .  A
C437        H440   1.082       .  S
C438        C507   1.471       .  S
C438        C439   1.381       .  A
C439        H441   1.082       .  S
N442        N443   1.322       .  A
N442        C446   1.346       .  A
N443        C444   1.346       .  A
C444        C445   1.384       .  A
C444        H447   1.082       .  S
C445       C1051   1.475       .  S
C445        C446   1.384       .  A
C446        H448   1.082       .  S
N449        N450   1.322       .  A
N449        C453   1.345       .  A
N449       Cu457   2.070       .  S
N450        C451   1.345       .  A
N450       Cu456   2.076       .  S
C451        C452   1.382       .  A
C451        H454   1.082       .  S
C452        C747   1.470       .  S
C452        C453   1.383       .  A
C453        H455   1.082       .  S
Cu456       N459   2.077       .  S
Cu457       N467   2.070       .  S
Cu458       N460   2.074       .  S
Cu458       N466   2.074       .  S
N459        N460   1.323       .  A
N459        C463   1.346       .  A
N460        C461   1.344       .  A
C461        C462   1.382       .  A
C461        H464   1.082       .  S
C462        C536   1.470       .  S
C462        C463   1.382       .  A
C463        H465   1.082       .  S
N466        N467   1.322       .  A
N466        C470   1.346       .  A
N467        C468   1.343       .  A
C468        C469   1.382       .  A
C468        H471   1.082       .  S
C469        C987   1.469       .  S
C469        C470   1.383       .  A
C470        H472   1.082       .  S
N473        N474   1.323       .  A
N473        C477   1.345       .  A
N473       Cu481   2.071       .  S
N474        C475   1.344       .  A
N474       Cu480   2.072       .  S
C475        C476   1.382       .  A
C475        H478   1.082       .  S
C476        C555   1.468       .  S
C476        C477   1.381       .  A
C477        H479   1.082       .  S
Cu480       N483   2.072       .  S
Cu481       N491   2.071       .  S
Cu482       N484   2.072       .  S
Cu482       N490   2.072       .  S
N483        N484   1.322       .  A
N483        C487   1.345       .  A
N484        C485   1.345       .  A
C485        C486   1.384       .  A
C485        H488   1.082       .  S
C486        C683   1.472       .  S
C486        C487   1.383       .  A
C487        H489   1.082       .  S
N490        N491   1.323       .  A
N490        C494   1.345       .  A
N491        C492   1.344       .  A
C492        C493   1.381       .  A
C492        H495   1.082       .  S
C493        C779   1.468       .  S
C493        C494   1.383       .  A
C494        H496   1.082       .  S
C497        C502   1.381       .  A
C497        C498   1.403       .  A
C497        O503   1.317       .  A
C498        C499   1.402       .  A
C498        H509   1.083       .  S
C499        C508   1.363       .  A
C499        C500   1.381       .  A
C500        C501   1.403       .  A
C500        O506   1.317       .  A
C501        C502   1.401       .  A
C501        H510   1.083       .  S
C502        C505   1.362       .  A
O503        C504   1.330       .  A
C504        C505   1.390       .  A
C505        H511   1.083       .  S
O506        C507   1.330       .  A
C507        C508   1.392       .  A
C508        H512   1.082       .  S
C513        C518   1.381       .  A
C513        C514   1.399       .  A
C513        O519   1.316       .  A
C514        C515   1.399       .  A
C514        H525   1.082       .  S
C515        C524   1.357       .  A
C515        C516   1.381       .  A
C516        C517   1.403       .  A
C516        O522   1.319       .  A
C517        C518   1.403       .  A
C517        H526   1.083       .  S
C518        C521   1.360       .  A
O519        C520   1.329       .  A
C520        C521   1.392       .  A
C521        H527   1.082       .  S
O522        C523   1.331       .  A
C523        C524   1.388       .  A
C524        H528   1.083       .  S
C529        C534   1.381       .  A
C529        C530   1.403       .  A
C529        O535   1.319       .  A
C530        C531   1.403       .  A
C530        H541   1.083       .  S
C531        C540   1.361       .  A
C531        C532   1.381       .  A
C532        C533   1.403       .  A
C532        O538   1.319       .  A
C533        C534   1.402       .  A
C533        H542   1.083       .  S
C534        C537   1.360       .  A
O535        C536   1.331       .  A
C536        C537   1.391       .  A
C537        H543   1.082       .  S
O538        C539   1.330       .  A
C539        C540   1.391       .  A
C540        H544   1.083       .  S
C545        C550   1.381       .  A
C545        C546   1.401       .  A
C545        O551   1.317       .  A
C546        C547   1.400       .  A
C546        H557   1.083       .  S
C547        C556   1.359       .  A
C547        C548   1.381       .  A
C548        C549   1.403       .  A
C548        O554   1.318       .  A
C549        C550   1.402       .  A
C549        H558   1.083       .  S
C550        C553   1.360       .  A
O551        C552   1.329       .  A
C552        C553   1.391       .  A
C553        H559   1.083       .  S
O554        C555   1.330       .  A
C555        C556   1.390       .  A
C556        H560   1.082       .  S
C561        C566   1.381       .  A
C561        C562   1.402       .  A
C561        O567   1.318       .  A
C562        C563   1.402       .  A
C562        H573   1.083       .  S
C563        C572   1.360       .  A
C563        C564   1.381       .  A
C564        C565   1.402       .  A
C564        O570   1.319       .  A
C565        C566   1.402       .  A
C565        H574   1.083       .  S
C566        C569   1.360       .  A
O567        C568   1.330       .  A
C568        C569   1.391       .  A
C569        H575   1.082       .  S
O570        C571   1.330       .  A
C571        C572   1.390       .  A
C572        H576   1.083       .  S
C577        C582   1.381       .  A
C577        C578   1.403       .  A
C577        O583   1.319       .  A
C578        C579   1.403       .  A
C578        H589   1.083       .  S
C579        C588   1.361       .  A
C579        C580   1.381       .  A
C580        C581   1.403       .  A
C580        O586   1.319       .  A
C581        C582   1.402       .  A
C581        H590   1.083       .  S
C582        C585   1.361       .  A
O583        C584   1.331       .  A
C584        C585   1.391       .  A
C585        H591   1.082       .  S
O586        C587   1.330       .  A
C587        C588   1.391       .  A
C588        H592   1.083       .  S
C593        C598   1.381       .  A
C593        C594   1.402       .  A
C593        O599   1.318       .  A
C594        C595   1.402       .  A
C594        H605   1.083       .  S
C595        C604   1.361       .  A
C595        C596   1.381       .  A
C596        C597   1.401       .  A
C596        O602   1.316       .  A
C597        C598   1.400       .  A
C597        H606   1.083       .  S
C598        C601   1.359       .  A
O599        C600   1.330       .  A
C600        C601   1.390       .  A
C601        H607   1.083       .  S
O602        C603   1.329       .  A
C603        C604   1.391       .  A
C604        H608   1.082       .  S
C609        C614   1.381       .  A
C609        C610   1.404       .  A
C609        O615   1.319       .  A
C610        C611   1.403       .  A
C610        H621   1.083       .  S
C611        C620   1.363       .  A
C611        C612   1.381       .  A
C612        C613   1.402       .  A
C612        O618   1.317       .  A
C613        C614   1.401       .  A
C613        H622   1.083       .  S
C614        C617   1.361       .  A
O615        C616   1.331       .  A
C616        C617   1.390       .  A
C617        H623   1.083       .  S
O618        C619   1.330       .  A
C619        C620   1.392       .  A
C620        H624   1.082       .  S
C625        C630   1.380       .  A
C625        C626   1.403       .  A
C625        O631   1.318       .  A
C626        C627   1.402       .  A
C626        H637   1.083       .  S
C627        C636   1.362       .  A
C627        C628   1.381       .  A
C628        C629   1.403       .  A
C628        O634   1.318       .  A
C629        C630   1.402       .  A
C629        H638   1.083       .  S
C630        C633   1.362       .  A
O631        C632   1.331       .  A
C632        C633   1.391       .  A
C633        H639   1.082       .  S
O634        C635   1.330       .  A
C635        C636   1.390       .  A
C636        H640   1.083       .  S
C641        C646   1.381       .  A
C641        C642   1.404       .  A
C641        O647   1.319       .  A
C642        C643   1.402       .  A
C642        H653   1.083       .  S
C643        C652   1.362       .  A
C643        C644   1.381       .  A
C644        C645   1.403       .  A
C644        O650   1.317       .  A
C645        C646   1.402       .  A
C645        H654   1.083       .  S
C646        C649   1.362       .  A
O647        C648   1.331       .  A
C648        C649   1.391       .  A
C649        H655   1.083       .  S
O650        C651   1.330       .  A
C651        C652   1.391       .  A
C652        H656   1.082       .  S
C657        C662   1.381       .  A
C657        C658   1.404       .  A
C657        O663   1.319       .  A
C658        C659   1.403       .  A
C658        H669   1.082       .  S
C659        C668   1.362       .  A
C659        C660   1.380       .  A
C660        C661   1.404       .  A
C660        O666   1.319       .  A
C661        C662   1.403       .  A
C661        H670   1.082       .  S
C662        C665   1.362       .  A
O663        C664   1.330       .  A
C664        C665   1.391       .  A
C665        H671   1.083       .  S
O666        C667   1.331       .  A
C667        C668   1.392       .  A
C668        H672   1.082       .  S
C673        C678   1.381       .  A
C673        C674   1.403       .  A
C673        O679   1.318       .  A
C674        C675   1.402       .  A
C674        H685   1.083       .  S
C675        C684   1.361       .  A
C675        C676   1.380       .  A
C676        C677   1.404       .  A
C676        O682   1.319       .  A
C677        C678   1.404       .  A
C677        H686   1.083       .  S
C678        C681   1.363       .  A
O679        C680   1.330       .  A
C680        C681   1.391       .  A
C681        H687   1.083       .  S
O682        C683   1.331       .  A
C683        C684   1.391       .  A
C684        H688   1.082       .  S
C689        C694   1.381       .  A
C689        C690   1.403       .  A
C689        O695   1.318       .  A
C690        C691   1.402       .  A
C690        H701   1.083       .  S
C691        C700   1.361       .  A
C691        C692   1.381       .  A
C692        C693   1.402       .  A
C692        O698   1.318       .  A
C693        C694   1.401       .  A
C693        H702   1.083       .  S
C694        C697   1.360       .  A
O695        C696   1.330       .  A
C696        C697   1.390       .  A
C697        H703   1.083       .  S
O698        C699   1.330       .  A
C699        C700   1.391       .  A
C700        H704   1.082       .  S
C705        C710   1.381       .  A
C705        C706   1.403       .  A
C705        O711   1.318       .  A
C706        C707   1.403       .  A
C706        H717   1.083       .  S
C707        C716   1.362       .  A
C707        C708   1.381       .  A
C708        C709   1.400       .  A
C708        O714   1.316       .  A
C709        C710   1.399       .  A
C709        H718   1.083       .  S
C710        C713   1.358       .  A
O711        C712   1.331       .  A
C712        C713   1.389       .  A
C713        H719   1.082       .  S
O714        C715   1.329       .  A
C715        C716   1.391       .  A
C716        H720   1.083       .  S
C721        C726   1.380       .  A
C721        C722   1.404       .  A
C721        O727   1.320       .  A
C722        C723   1.404       .  A
C722        H733   1.083       .  S
C723        C732   1.362       .  A
C723        C724   1.381       .  A
C724        C725   1.403       .  A
C724        O730   1.320       .  A
C725        C726   1.403       .  A
C725        H734   1.083       .  S
C726        C729   1.361       .  A
O727        C728   1.331       .  A
C728        C729   1.391       .  A
C729        H735   1.082       .  S
O730        C731   1.331       .  A
C731        C732   1.392       .  A
C732        H736   1.083       .  S
C737        C742   1.381       .  A
C737        C738   1.403       .  A
C737        O743   1.318       .  A
C738        C739   1.402       .  A
C738        H749   1.083       .  S
C739        C748   1.361       .  A
C739        C740   1.381       .  A
C740        C741   1.402       .  A
C740        O746   1.318       .  A
C741        C742   1.401       .  A
C741        H750   1.083       .  S
C742        C745   1.360       .  A
O743        C744   1.330       .  A
C744        C745   1.390       .  A
C745        H751   1.083       .  S
O746        C747   1.330       .  A
C747        C748   1.391       .  A
C748        H752   1.082       .  S
C753        C758   1.380       .  A
C753        C754   1.405       .  A
C753        O759   1.321       .  A
C754        C755   1.405       .  A
C754        H765   1.082       .  S
C755        C764   1.362       .  A
C755        C756   1.380       .  A
C756        C757   1.402       .  A
C756        O762   1.319       .  A
C757        C758   1.402       .  A
C757        H766   1.082       .  S
C758        C761   1.359       .  A
O759        C760   1.332       .  A
C760        C761   1.391       .  A
C761        H767   1.082       .  S
O762        C763   1.330       .  A
C763        C764   1.393       .  A
C764        H768   1.082       .  S
C769        C774   1.381       .  A
C769        C770   1.402       .  A
C769        O775   1.317       .  A
C770        C771   1.401       .  A
C770        H781   1.082       .  S
C771        C780   1.360       .  A
C771        C772   1.381       .  A
C772        C773   1.402       .  A
C772        O778   1.317       .  A
C773        C774   1.401       .  A
C773        H782   1.082       .  S
C774        C777   1.360       .  A
O775        C776   1.330       .  A
C776        C777   1.391       .  A
C777        H783   1.082       .  S
O778        C779   1.330       .  A
C779        C780   1.391       .  A
C780        H784   1.082       .  S
C785        C790   1.380       .  A
C785        C786   1.402       .  A
C785        O791   1.317       .  A
C786        C787   1.401       .  A
C786        H797   1.082       .  S
C787        C796   1.361       .  A
C787        C788   1.380       .  A
C788        C789   1.403       .  A
C788        O794   1.318       .  A
C789        C790   1.402       .  A
C789        H798   1.082       .  S
C790        C793   1.362       .  A
O791        C792   1.330       .  A
C792        C793   1.391       .  A
C793        H799   1.082       .  S
O794        C795   1.331       .  A
C795        C796   1.391       .  A
C796        H800   1.082       .  S
C801        C806   1.380       .  A
C801        C802   1.406       .  A
C801        O807   1.321       .  A
C802        C803   1.405       .  A
C802        H813   1.082       .  S
C803        C812   1.364       .  A
C803        C804   1.380       .  A
C804        C805   1.403       .  A
C804        O810   1.319       .  A
C805        C806   1.402       .  A
C805        H814   1.082       .  S
C806        C809   1.361       .  A
O807        C808   1.332       .  A
C808        C809   1.391       .  A
C809        H815   1.082       .  S
O810        C811   1.330       .  A
C811        C812   1.393       .  A
C812        H816   1.082       .  S
C817        C822   1.381       .  A
C817        C818   1.403       .  A
C817        O823   1.318       .  A
C818        C819   1.402       .  A
C818        H829   1.083       .  S
C819        C828   1.361       .  A
C819        C820   1.381       .  A
C820        C821   1.402       .  A
C820        O826   1.318       .  A
C821        C822   1.401       .  A
C821        H830   1.083       .  S
C822        C825   1.360       .  A
O823        C824   1.331       .  A
C824        C825   1.390       .  A
C825        H831   1.083       .  S
O826        C827   1.330       .  A
C827        C828   1.391       .  A
C828        H832   1.082       .  S
C833        C838   1.381       .  A
C833        C834   1.403       .  A
C833        O839   1.319       .  A
C834        C835   1.403       .  A
C834        H845   1.083       .  S
C835        C844   1.361       .  A
C835        C836   1.381       .  A
C836        C837   1.402       .  A
C836        O842   1.319       .  A
C837        C838   1.402       .  A
C837        H846   1.083       .  S
C838        C841   1.360       .  A
O839        C840   1.331       .  A
C840        C841   1.390       .  A
C841        H847   1.083       .  S
O842        C843   1.330       .  A
C843        C844   1.392       .  A
C844        H848   1.083       .  S
C849        C854   1.381       .  A
C849        C850   1.399       .  A
C849        O855   1.317       .  A
C850        C851   1.399       .  A
C850        H861   1.083       .  S
C851        C860   1.356       .  A
C851        C852   1.381       .  A
C852        C853   1.403       .  A
C852        O858   1.319       .  A
C853        C854   1.403       .  A
C853        H862   1.083       .  S
C854        C857   1.361       .  A
O855        C856   1.329       .  A
C856        C857   1.391       .  A
C857        H863   1.083       .  S
O858        C859   1.331       .  A
C859        C860   1.388       .  A
C860        H864   1.082       .  S
C865        C870   1.381       .  A
C865        C866   1.403       .  A
C865        O871   1.319       .  A
C866        C867   1.402       .  A
C866        H877   1.083       .  S
C867        C876   1.360       .  A
C867        C868   1.380       .  A
C868        C869   1.404       .  A
C868        O874   1.320       .  A
C869        C870   1.403       .  A
C869        H878   1.083       .  S
C870        C873   1.362       .  A
O871        C872   1.330       .  A
C872        C873   1.391       .  A
C873        H879   1.083       .  S
O874        C875   1.331       .  A
C875        C876   1.391       .  A
C876        H880   1.082       .  S
C881        C886   1.381       .  A
C881        C882   1.402       .  A
C881        O887   1.316       .  A
C882        C883   1.401       .  A
C882        H893   1.083       .  S
C883        C892   1.362       .  A
C883        C884   1.381       .  A
C884        C885   1.401       .  A
C884        O890   1.315       .  A
C885        C886   1.400       .  A
C885        H894   1.083       .  S
C886        C889   1.360       .  A
O887        C888   1.330       .  A
C888        C889   1.390       .  A
C889        H895   1.082       .  S
O890        C891   1.329       .  A
C891        C892   1.390       .  A
C892        H896   1.083       .  S
C897        C902   1.381       .  A
C897        C898   1.401       .  A
C897        O903   1.317       .  A
C898        C899   1.400       .  A
C898        H909   1.083       .  S
C899        C908   1.358       .  A
C899        C900   1.381       .  A
C900        C901   1.402       .  A
C900        O906   1.318       .  A
C901        C902   1.401       .  A
C901        H910   1.083       .  S
C902        C905   1.359       .  A
O903        C904   1.329       .  A
C904        C905   1.390       .  A
C905        H911   1.083       .  S
O906        C907   1.330       .  A
C907        C908   1.390       .  A
C908        H912   1.082       .  S
C913        C918   1.380       .  A
C913        C914   1.404       .  A
C913        O919   1.319       .  A
C914        C915   1.403       .  A
C914        H925   1.083       .  S
C915        C924   1.362       .  A
C915        C916   1.381       .  A
C916        C917   1.402       .  A
C916        O922   1.318       .  A
C917        C918   1.401       .  A
C917        H926   1.083       .  S
C918        C921   1.360       .  A
O919        C920   1.331       .  A
C920        C921   1.391       .  A
C921        H927   1.082       .  S
O922        C923   1.330       .  A
C923        C924   1.392       .  A
C924        H928   1.083       .  S
C929        C934   1.381       .  A
C929        C930   1.402       .  A
C929        O935   1.317       .  A
C930        C931   1.401       .  A
C930        H941   1.083       .  S
C931        C940   1.359       .  A
C931        C932   1.381       .  A
C932        C933   1.402       .  A
C932        O938   1.318       .  A
C933        C934   1.401       .  A
C933        H942   1.082       .  S
C934        C937   1.360       .  A
O935        C936   1.330       .  A
C936        C937   1.390       .  A
C937        H943   1.083       .  S
O938        C939   1.330       .  A
C939        C940   1.391       .  A
C940        H944   1.082       .  S
C945        C950   1.380       .  A
C945        C946   1.403       .  A
C945        O951   1.318       .  A
C946        C947   1.402       .  A
C946        H957   1.082       .  S
C947        C956   1.361       .  A
C947        C948   1.380       .  A
C948        C949   1.403       .  A
C948        O954   1.319       .  A
C949        C950   1.402       .  A
C949        H958   1.082       .  S
C950        C953   1.362       .  A
O951        C952   1.331       .  A
C952        C953   1.391       .  A
C953        H959   1.082       .  S
O954        C955   1.331       .  A
C955        C956   1.392       .  A
C956        H960   1.082       .  S
C961        C966   1.381       .  A
C961        C962   1.402       .  A
C961        O967   1.318       .  A
C962        C963   1.401       .  A
C962        H973   1.083       .  S
C963        C972   1.360       .  A
C963        C964   1.380       .  A
C964        C965   1.404       .  A
C964        O970   1.320       .  A
C965        C966   1.404       .  A
C965        H974   1.083       .  S
C966        C969   1.362       .  A
O967        C968   1.330       .  A
C968        C969   1.392       .  A
C969        H975   1.083       .  S
O970        C971   1.332       .  A
C971        C972   1.391       .  A
C972        H976   1.082       .  S
C977        C982   1.381       .  A
C977        C978   1.401       .  A
C977        O983   1.317       .  A
C978        C979   1.401       .  A
C978        H989   1.082       .  S
C979        C988   1.358       .  A
C979        C980   1.381       .  A
C980        C981   1.402       .  A
C980        O986   1.319       .  A
C981        C982   1.402       .  A
C981        H990   1.082       .  S
C982        C985   1.360       .  A
O983        C984   1.330       .  A
C984        C985   1.391       .  A
C985        H991   1.082       .  S
O986        C987   1.331       .  A
C987        C988   1.390       .  A
C988        H992   1.082       .  S
C993        C998   1.380       .  A
C993        C994   1.404       .  A
C993        O999   1.319       .  A
C994        C995   1.403       .  A
C994       H1005   1.082       .  S
C995       C1004   1.364       .  A
C995        C996   1.380       .  A
C996        C997   1.403       .  A
C996       O1002   1.318       .  A
C997        C998   1.402       .  A
C997       H1006   1.082       .  S
C998       C1001   1.362       .  A
O999       C1000   1.331       .  A
C1000      C1001   1.391       .  A
C1001      H1007   1.082       .  S
O1002      C1003   1.331       .  A
C1003      C1004   1.392       .  A
C1004      H1008   1.083       .  S
C1009      C1014   1.380       .  A
C1009      C1010   1.404       .  A
C1009      O1015   1.319       .  A
C1010      C1011   1.403       .  A
C1010      H1021   1.082       .  S
C1011      C1020   1.363       .  A
C1011      C1012   1.380       .  A
C1012      C1013   1.404       .  A
C1012      O1018   1.319       .  A
C1013      C1014   1.403       .  A
C1013      H1022   1.082       .  S
C1014      C1017   1.363       .  A
O1015      C1016   1.331       .  A
C1016      C1017   1.392       .  A
C1017      H1023   1.082       .  S
O1018      C1019   1.331       .  A
C1019      C1020   1.392       .  A
C1020      H1024   1.082       .  S
C1025      C1030   1.381       .  A
C1025      C1026   1.401       .  A
C1025      O1031   1.317       .  A
C1026      C1027   1.400       .  A
C1026      H1037   1.083       .  S
C1027      C1036   1.359       .  A
C1027      C1028   1.381       .  A
C1028      C1029   1.403       .  A
C1028      O1034   1.319       .  A
C1029      C1030   1.402       .  A
C1029      H1038   1.083       .  S
C1030      C1033   1.361       .  A
O1031      C1032   1.329       .  A
C1032      C1033   1.391       .  A
C1033      H1039   1.083       .  S
O1034      C1035   1.331       .  A
C1035      C1036   1.390       .  A
C1036      H1040   1.082       .  S
C1041      C1046   1.380       .  A
C1041      C1042   1.405       .  A
C1041      O1047   1.320       .  A
C1042      C1043   1.405       .  A
C1042      H1053   1.082       .  S
C1043      C1052   1.364       .  A
C1043      C1044   1.380       .  A
C1044      C1045   1.403       .  A
C1044      O1050   1.319       .  A
C1045      C1046   1.402       .  A
C1045      H1054   1.082       .  S
C1046      C1049   1.361       .  A
O1047      C1048   1.332       .  A
C1048      C1049   1.391       .  A
C1049      H1055   1.082       .  S
O1050      C1051   1.331       .  A
C1051      C1052   1.393       .  A
C1052      H1056   1.082       .  S
C1057      C1062   1.381       .  A
C1057      C1058   1.402       .  A
C1057      O1063   1.318       .  A
C1058      C1059   1.402       .  A
C1058      H1069   1.083       .  S
C1059      C1068   1.361       .  A
C1059      C1060   1.381       .  A
C1060      C1061   1.402       .  A
C1060      O1066   1.317       .  A
C1061      C1062   1.401       .  A
C1061      H1070   1.083       .  S
C1062      C1065   1.360       .  A
O1063      C1064   1.330       .  A
C1064      C1065   1.390       .  A
C1065      H1071   1.082       .  S
O1066      C1067   1.330       .  A
C1067      C1068   1.391       .  A
C1068      H1072   1.083       .  S
C1073      C1078   1.381       .  A
C1073      C1074   1.401       .  A
C1073      O1079   1.316       .  A
C1074      C1075   1.400       .  A
C1074      H1085   1.083       .  S
C1075      C1084   1.359       .  A
C1075      C1076   1.381       .  A
C1076      C1077   1.403       .  A
C1076      O1082   1.318       .  A
C1077      C1078   1.402       .  A
C1077      H1086   1.083       .  S
C1078      C1081   1.362       .  A
O1079      C1080   1.329       .  A
C1080      C1081   1.391       .  A
C1081      H1087   1.083       .  S
O1082      C1083   1.331       .  A
C1083      C1084   1.390       .  A
C1084      H1088   1.082       .  S
C1089      C1094   1.381       .  A
C1089      C1090   1.403       .  A
C1089      O1095   1.317       .  A
C1090      C1091   1.402       .  A
C1090      H1101   1.083       .  S
C1091      C1100   1.362       .  A
C1091      C1092   1.381       .  A
C1092      C1093   1.402       .  A
C1092      O1098   1.317       .  A
C1093      C1094   1.401       .  A
C1093      H1102   1.083       .  S
C1094      C1097   1.360       .  A
O1095      C1096   1.330       .  A
C1096      C1097   1.390       .  A
C1097      H1103   1.082       .  S
O1098      C1099   1.330       .  A
C1099      C1100   1.391       .  A
C1100      H1104   1.083       .  S
C1105      C1110   1.381       .  A
C1105      C1106   1.401       .  A
C1105      O1111   1.317       .  A
C1106      C1107   1.401       .  A
C1106      H1117   1.083       .  S
C1107      C1116   1.359       .  A
C1107      C1108   1.381       .  A
C1108      C1109   1.402       .  A
C1108      O1114   1.318       .  A
C1109      C1110   1.402       .  A
C1109      H1118   1.083       .  S
C1110      C1113   1.360       .  A
O1111      C1112   1.329       .  A
C1112      C1113   1.391       .  A
C1113      H1119   1.082       .  S
O1114      C1115   1.330       .  A
C1115      C1116   1.389       .  A
C1116      H1120   1.083       .  S
C1121      C1126   1.381       .  A
C1121      C1122   1.404       .  A
C1121      O1127   1.320       .  A
C1122      C1123   1.404       .  A
C1122      H1133   1.083       .  S
C1123      C1132   1.362       .  A
C1123      C1124   1.381       .  A
C1124      C1125   1.403       .  A
C1124      O1130   1.319       .  A
C1125      C1126   1.402       .  A
C1125      H1134   1.083       .  S
C1126      C1129   1.361       .  A
O1127      C1128   1.331       .  A
C1128      C1129   1.391       .  A
C1129      H1135   1.083       .  S
O1130      C1131   1.331       .  A
C1131      C1132   1.392       .  A
C1132      H1136   1.082       .  S
