geometry optimzed in LAMMPS
_audit_creation_date              2020-12-01 
_audit_creation_method            'lammps2cif' 
_symmetry_space_group_name_H-M    'P1' 
_symmetry_Int_Tables_number       1 
_symmetry_cell_setting            triclinic 
loop_ 
_symmetry_equiv_pos_as_xyz 
  x,y,z 
_cell_length_a                    39.89084028 
_cell_length_b                    39.84788729432947 
_cell_length_c                    39.10364744648287 
_cell_angle_alpha                 90.0055687204334 
_cell_angle_beta                  89.98279661980608 
_cell_angle_gamma                 120.05478951387364 
loop_ 
_atom_site_label 
_atom_site_type_symbol 
_atom_site_fract_x 
_atom_site_fract_y 
_atom_site_fract_z 
_atom_site_charge 
C1          C  0.11142978  0.22394993  0.65642605     0.46700
H2          H  0.11138741  0.22415545  0.68484121    -0.02300
C3          C  0.11167370  0.22344800  0.58976433     0.46800
H4          H  0.11178503  0.22322570  0.56130735    -0.02300
C5          C  0.09193655  0.24518318  0.64018617    -0.16000
C6          C  0.15236957  0.24336690  0.64060972    -0.15700
C7          C  0.09004049  0.18290466  0.64074688    -0.16100
C8          C  0.09241699  0.24472809  0.60510538    -0.16100
C9          C  0.15197942  0.24282095  0.60556147    -0.15700
C10         C  0.09042096  0.18314973  0.60568891    -0.16000
C11         C  0.11141653  0.22384727  0.82132003     0.46700
H12         H  0.11126821  0.22410557  0.79290535    -0.02300
C13         C  0.11172841  0.22305153  0.88798275     0.46800
H14         H  0.11184458  0.22269987  0.91643648    -0.02300
C15         C  0.15237165  0.24504752  0.83711247    -0.16000
C16         C  0.09017886  0.24325088  0.83770899    -0.15700
C17         C  0.09198519  0.18276130  0.83687639    -0.16100
C18         C  0.15205162  0.24428348  0.87217565    -0.16100
C19         C  0.09065235  0.24260312  0.87277295    -0.15700
C20         C  0.09232189  0.18282789  0.87191433    -0.16000
C21         C  0.00055159  0.00142795  0.70561150     0.46700
H22         H  0.00055600  0.00146492  0.67719392    -0.02300
C23         C  0.33372180  0.00144149  0.77219971     0.46800
H24         H  0.33367980  0.00152856  0.80061913    -0.02300
C25         C  0.02027501  0.31373687  0.72140135    -0.16000
C26         C  0.02123621  0.04226627  0.72135920    -0.15700
C27         C  0.29282216  0.31459023  0.72121530    -0.16100
C28         C  0.02043321  0.31393506  0.75661662    -0.16100
C29         C  0.02098450  0.04220455  0.75649260    -0.15700
C30         C  0.29269839  0.31429094  0.75637279    -0.16000
C31         C  0.22249223  0.11197398  0.32146071     0.46700
H32         H  0.22234695  0.11182409  0.29304510    -0.02300
C33         C  0.22286233  0.11234688  0.38813672     0.46800
H34         H  0.22300957  0.11250291  0.41659042    -0.02300
C35         C  0.18165318  0.09221342  0.33754208    -0.16000
C36         C  0.24236460  0.09094710  0.33736103    -0.15700
C37         C  0.24372158  0.15302511  0.33720794    -0.16100
C38         C  0.18235949  0.09272356  0.37260629    -0.16100
C39         C  0.24232774  0.09138507  0.37242702    -0.15700
C40         C  0.24363632  0.15272663  0.37228025    -0.16000
C41         C  0.22276902  0.11229711  0.08961545     0.46700
H42         H  0.22280762  0.11240560  0.06116153    -0.02300
C43         C  0.22267732  0.11208578  0.15627118     0.46800
H44         H  0.22267739  0.11202254  0.18468464    -0.02300
C45         C  0.18231354  0.09103893  0.10528584    -0.16000
C46         C  0.24397232  0.09303952  0.10524030    -0.15700
C47         C  0.24195335  0.15270610  0.10541216    -0.16100
C48         C  0.18176721  0.09058530  0.14036502    -0.16100
C49         C  0.24421096  0.09273792  0.14031710    -0.15700
C50         C  0.24207031  0.15308833  0.14047268    -0.16000
C51         C  0.00049851  0.00122013  0.20564469     0.46700
H52         H  0.00056733  0.00127570  0.17722975    -0.02300
C53         C  0.00024358  0.00103056  0.27224819     0.46800
H54         H  0.00012495  0.00094146  0.30066479    -0.02300
C55         C  0.31356767  0.02172057  0.22135233    -0.16000
C56         C  0.31308543  0.29372678  0.22129845    -0.15700
C57         C  0.04131478  0.02142453  0.22148605    -0.16100
C58         C  0.31371632  0.02186906  0.25652919    -0.16100
C59         C  0.31273406  0.29366517  0.25646543    -0.15700
C60         C  0.04114984  0.02103803  0.25667804    -0.16000
Zn61       Zn  0.02748560  0.30809240  0.00567760     1.49700
Zn62       Zn  0.00075748  0.00055794  0.93875515     1.49400
Zn63       Zn  0.28039875  0.30765431  0.00502787     1.49100
Zn64       Zn  0.02733224  0.05481521  0.00480868     1.49500
O65         O  0.00063613  0.00110297  0.98869243    -1.82900
O66         O  0.04690840  0.28907298  0.96699033    -0.73500
O67         O  0.28042655  0.30637373  0.91970009    -0.73300
O68         O  0.26976736  0.26200763  0.03434777    -0.72800
O69         O  0.02792383  0.30733385  0.92055666    -0.73500
O70         O  0.32575177  0.26237444  0.03495675    -0.73100
O71         O  0.24257782  0.28829345  0.96576605    -0.73700
O72         O  0.32561261  0.06556719  0.03396803    -0.73100
O73         O  0.02737898  0.05411447  0.91943499    -0.73800
O74         O  0.26972060  0.00968618  0.03400364    -0.73200
O75         O  0.04606557  0.09231049  0.96531491    -0.73700
O76         O  0.07329825  0.06597871  0.03392230    -0.73600
O77         O  0.07292973  0.00993807  0.03478623    -0.73400
C78         C  0.04469335  0.29106421  0.93469499     0.78400
C79         C  0.24716900  0.29000218  0.93350287     0.78900
C80         C  0.29060260  0.24794158  0.04400120     0.77900
C81         C  0.29055651  0.04477919  0.04332720     0.78200
C82         C  0.04386541  0.08749030  0.93307560     0.79400
C83         C  0.08737784  0.04517042  0.04366785     0.78400
Zn84       Zn  0.02746531  0.05501458  0.47280453     1.49700
Zn85       Zn  0.02712349  0.30799367  0.47215558     1.49400
Zn86       Zn  0.00084160  0.00105196  0.53894734     1.49100
Zn87       Zn  0.28020699  0.30793130  0.47267847     1.49500
O88         O  0.00060803  0.00134139  0.48901705    -1.82900
O89         O  0.07351911  0.06596452  0.44397287    -0.73500
O90         O  0.04635940  0.28888286  0.51092091    -0.73300
O91         O  0.02773700  0.05465967  0.55810147    -0.72800
O92         O  0.07282237  0.00975491  0.44311640    -0.73500
O93         O  0.04602957  0.09269701  0.51213139    -0.73100
O94         O  0.02768985  0.30755840  0.55730849    -0.73700
O95         O  0.24244788  0.28913612  0.51194713    -0.73100
O96         O  0.32517839  0.26234536  0.44279650    -0.73800
O97         O  0.28029427  0.30710920  0.55800135    -0.73200
O98         O  0.26920919  0.26200157  0.44352054    -0.73700
O99         O  0.26996322  0.01004078  0.44355326    -0.73600
O100        O  0.32596520  0.06580685  0.44347925    -0.73400
C101        C  0.08747900  0.04502666  0.43429429     0.78400
C102        C  0.04426743  0.29105983  0.54321424     0.78900
C103        C  0.04400216  0.08798461  0.54437701     0.77900
C104        C  0.24705058  0.29094353  0.54420343     0.78200
C105        C  0.29001689  0.24791812  0.43380255     0.79400
C106        C  0.29090724  0.04508328  0.43414348     0.78400
C107        C  0.14836195  0.07518935  0.08398070    -0.12000
C108        C  0.12051134  0.06183221  0.06555237    -0.13600
C109        C  0.25964828  0.18682439  0.08424476    -0.12000
C110        C  0.27393233  0.21478917  0.06590631    -0.13600
C111        C  0.26041334  0.07550888  0.08387753    -0.12000
C112        C  0.27407582  0.06138107  0.06533346    -0.13600
C113        C  0.30403322  0.22824626  0.20651561    -0.12100
C114        C  0.29594432  0.25816127  0.19988103     0.10100
C115        C  0.27027228  0.25352425  0.17342237    -0.12100
C116        C  0.25227990  0.21918844  0.15441504    -0.12100
C117        C  0.26004767  0.18910168  0.16129073     0.10100
C118        C  0.28584070  0.19380859  0.18766643    -0.12100
H119        H  0.32424173  0.23145017  0.22647295     0.14100
H120        H  0.26345784  0.27611093  0.16802078     0.14100
H121        H  0.23195332  0.21595350  0.13456424     0.14100
H122        H  0.29245403  0.17111970  0.19324478     0.14100
C123        C  0.24102848  0.04895843  0.18759758    -0.12100
C124        C  0.26211115  0.07461773  0.16108338     0.10100
C125        C  0.29990852  0.08229898  0.15418314    -0.12100
C126        C  0.31621084  0.06439742  0.17331552    -0.12100
C127        C  0.29520004  0.03888654  0.19992672     0.10100
C128        C  0.25723222  0.03085207  0.20657304    -0.12100
H129        H  0.21176505  0.04240604  0.19321495     0.14100
H130        H  0.31702005  0.10253787  0.13425291     0.14100
H131        H  0.34557747  0.07116442  0.16787942     0.14100
H132        H  0.24021081  0.01073576  0.22661433     0.14100
C133        C  0.14165655  0.09354254  0.18820088    -0.12100
C134        C  0.14572880  0.07273201  0.16116571     0.10100
C135        C  0.11510255  0.03526131  0.15380463    -0.12100
C136        C  0.08092715  0.01903118  0.17298767    -0.12100
C137        C  0.07693806  0.03975595  0.20012947     0.10100
C138        C  0.10737006  0.07741809  0.20722654    -0.12100
H139        H  0.16473439  0.12256890  0.19418243     0.14100
H140        H  0.11780467  0.01830355  0.13349091     0.14100
H141        H  0.05794444  0.98990682  0.16716116     0.14100
H142        H  0.10467501  0.09429573  0.22762278     0.14100
C143        C  0.12067079  0.06160884  0.41249448    -0.12000
C144        C  0.14849440  0.07547169  0.39403049    -0.13600
C145        C  0.25981101  0.18687092  0.39343544    -0.12000
C146        C  0.27338762  0.21479143  0.41183987    -0.13600
C147        C  0.27447287  0.06168070  0.41212931    -0.12000
C148        C  0.26022390  0.07526451  0.39367134    -0.13600
C149        C  0.29925510  0.21916750  0.32316251    -0.12100
C150        C  0.26142319  0.18900680  0.31637520     0.10100
C151        C  0.24014268  0.19362894  0.29011536    -0.12100
C152        C  0.25624675  0.22808776  0.27126777    -0.12100
C153        C  0.29426544  0.25807274  0.27783810     0.10100
C154        C  0.31543175  0.25348852  0.30419258    -0.12100
H155        H  0.31647977  0.21599079  0.34291651     0.14100
H156        H  0.21084260  0.17085250  0.28461126     0.14100
H157        H  0.23915749  0.23124157  0.25136175     0.14100
H158        H  0.01143741  0.27627372  0.30971887     0.14100
C159        C  0.25279913  0.03530687  0.32336237    -0.12100
C160        C  0.26063701  0.07321257  0.31661669     0.10100
C161        C  0.28665309  0.09455003  0.29040682    -0.12100
C162        C  0.30489578  0.07841310  0.27151286    -0.12100
C163        C  0.29664178  0.04029796  0.27797240     0.10100
C164        C  0.27081924  0.01907886  0.30431905    -0.12100
H165        H  0.23235135  0.01806846  0.34311681     0.14100
H166        H  0.29332317  0.12391578  0.28495461     0.14100
H167        H  0.32521867  0.09555340  0.25164228     0.14100
H168        H  0.26399213  0.32314005  0.30962403     0.14100
C169        C  0.08125519  0.06367935  0.30464085    -0.12100
C170        C  0.07653125  0.03781431  0.27829369     0.10100
C171        C  0.10620767  0.02932400  0.27195539    -0.12100
C172        C  0.14059430  0.04750427  0.29087216    -0.12100
C173        C  0.14548242  0.07372293  0.31697013     0.10100
C174        C  0.11551799  0.08166527  0.32368032    -0.12100
H175        H  0.05884114  0.07076927  0.30985162     0.14100
H176        H  0.10300201  0.34256384  0.25205109     0.14100
H177        H  0.16317930  0.04071556  0.28545650     0.14100
H178        H  0.11885532  0.10225419  0.34333708     0.14100
C179        C  0.06057168  0.12069281  0.91127548    -0.12000
C180        C  0.07477662  0.14857352  0.89286578    -0.13600
C181        C  0.18607814  0.26001877  0.89335548    -0.12000
C182        C  0.21386786  0.27329588  0.91183991    -0.13600
C183        C  0.06139413  0.27432498  0.91330421    -0.12000
C184        C  0.07472746  0.26016228  0.89452989    -0.13600
C185        C  0.19266607  0.24194750  0.78968742    -0.12100
C186        C  0.18823546  0.26302259  0.81625381     0.10100
C187        C  0.21841909  0.30080398  0.82326113    -0.12100
C188        C  0.25264889  0.31710258  0.80418607    -0.12100
C189        C  0.25707240  0.29604593  0.77759902     0.10100
C190        C  0.22700941  0.25812860  0.77079284    -0.12100
H191        H  0.16985819  0.21268728  0.78402859     0.12500
H192        H  0.21535214  0.31783982  0.84329195     0.14100
H193        H  0.27536223  0.34644954  0.80969800     0.14100
H194        H  0.23006864  0.24109821  0.75075148     0.14100
C195        C  0.01796830  0.27144679  0.80483648    -0.12100
C196        C  0.03892232  0.29699116  0.77820043     0.10100
C197        C  0.07706522  0.30546736  0.77180807    -0.12100
C198        C  0.09345204  0.28762616  0.79092499    -0.12100
C199        C  0.07235298  0.26173412  0.81730424     0.10100
C200        C  0.03446118  0.25381199  0.82412545    -0.12100
H201        H  0.98849881  0.26442364  0.81014693     0.14100
H202        H  0.09405066  0.32565950  0.75179618     0.14100
H203        H  0.12280740  0.29441189  0.78540872     0.14100
H204        H  0.01738428  0.23348268  0.84401826     0.14100
C205        C  0.08372729  0.11792636  0.82158744    -0.12100
C206        C  0.07412461  0.14693521  0.81595798     0.10100
C207        C  0.04656752  0.14120212  0.79097017    -0.12100
C208        C  0.02842512  0.10668500  0.77222809    -0.12100
C209        C  0.03818781  0.07776537  0.77776150     0.10100
C210        C  0.06572994  0.08350434  0.80274315    -0.12100
H211        H  0.10533909  0.12204483  0.84044809     0.14100
H212        H  0.03862833  0.16314118  0.78641178     0.14100
H213        H  0.34056676  0.10279578  0.75304505     0.14100
H214        H  0.07386239  0.06167883  0.80713715     0.14100
C215        C  0.06047715  0.12123393  0.56610042    -0.12000
C216        C  0.07405050  0.14904539  0.58457826    -0.13600
C217        C  0.21376895  0.27425307  0.56585911    -0.12000
C218        C  0.18597965  0.26020328  0.58434102    -0.13600
C219        C  0.07504521  0.26091196  0.58340995    -0.12000
C220        C  0.06106884  0.27444684  0.56464590    -0.13600
C221        C  0.03418583  0.11703282  0.65509739    -0.12100
C222        C  0.07217590  0.14700698  0.66164680     0.10100
C223        C  0.09359397  0.14225017  0.68767777    -0.12100
C224        C  0.07752002  0.10780333  0.70650016    -0.12100
C225        C  0.03942383  0.07792863  0.70010357     0.10100
C226        C  0.01802726  0.08268624  0.67405941    -0.12100
H227        H  0.01690170  0.12034191  0.63548248     0.14100
H228        H  0.12301339  0.16489243  0.69297561     0.14100
H229        H  0.09476048  0.10451434  0.72617122     0.14100
H230        H  0.32188283  0.06021016  0.66892498     0.14100
C231        C  0.19364281  0.28855921  0.68686534    -0.12100
C232        C  0.18835723  0.26162869  0.66133355     0.10100
C233        C  0.21786972  0.25290749  0.65513519    -0.12100
C234        C  0.25219948  0.27095822  0.67404934    -0.12100
C235        C  0.25739549  0.29766584  0.69973583     0.10100
C236        C  0.22808783  0.30677576  0.70568021    -0.12100
H237        H  0.17136937  0.29589702  0.69186176     0.14100
H238        H  0.21416552  0.23178181  0.63587689     0.14100
H239        H  0.27432164  0.26336234  0.66923341     0.14100
H240        H  0.23174809  0.32771312  0.72512343     0.14100
C241        C  0.04809753  0.24160107  0.68753674    -0.12100
C242        C  0.07327435  0.26269115  0.66073583     0.10100
C243        C  0.08019377  0.30020095  0.65356119    -0.12100
C244        C  0.06223379  0.31631007  0.67285131    -0.12100
C245        C  0.03740272  0.29540461  0.69988608     0.10100
C246        C  0.02993050  0.25761912  0.70668634    -0.12100
H247        H  0.04206390  0.21250638  0.69332822     0.14100
H248        H  0.10002851  0.31733171  0.63340686     0.14100
H249        H  0.06853214  0.34552890  0.66723948     0.14100
H250        H  0.01024681  0.24061388  0.72698239     0.14100
C251        C  0.11157934  0.55722695  0.65644223     0.46700
H252        H  0.11156255  0.55745943  0.68485696    -0.02300
C253        C  0.11174255  0.55665053  0.58977856     0.46800
H254        H  0.11182393  0.55639367  0.56132205    -0.02300
C255        C  0.09212435  0.57850199  0.64018825    -0.16000
C256        C  0.15250070  0.57657341  0.64059992    -0.15700
C257        C  0.09012167  0.51616562  0.64080144    -0.16100
C258        C  0.09254344  0.57799218  0.60510495    -0.16100
C259        C  0.15206753  0.57600202  0.60555446    -0.15700
C260        C  0.09044284  0.51637306  0.60574546    -0.16000
C261        C  0.11159634  0.55724857  0.82114987     0.46700
H262        H  0.11148121  0.55752559  0.79273486    -0.02300
C263        C  0.11179698  0.55641233  0.88781128     0.46800
H264        H  0.11186968  0.55604362  0.91626552    -0.02300
C265        C  0.15252888  0.57857153  0.83698322    -0.16000
C266        C  0.09020596  0.57651187  0.83751511    -0.15700
C267        C  0.09227669  0.51615241  0.83669325    -0.16100
C268        C  0.15214112  0.57780217  0.87204800    -0.16100
C269        C  0.09059422  0.57581718  0.87257921    -0.15700
C270        C  0.09255646  0.51620029  0.87173068    -0.16000
C271        C  0.00035470  0.33464956  0.70562940     0.46700
H272        H  0.00034935  0.33468372  0.67721185    -0.02300
C273        C  0.33348064  0.33446359  0.77222592     0.46800
H274        H  0.33344299  0.33451097  0.80064539    -0.02300
C275        C  0.02049474  0.64717701  0.72128388    -0.16000
C276        C  0.02118170  0.37549295  0.72136573    -0.15700
C277        C  0.29306374  0.64797658  0.72111051    -0.16100
C278        C  0.02059095  0.64733721  0.75649552    -0.16100
C279        C  0.02097469  0.37545362  0.75649654    -0.15700
C280        C  0.29293804  0.64770139  0.75627474    -0.16000
C281        C  0.22245560  0.44543853  0.32158596     0.46700
H282        H  0.22235914  0.44534094  0.29317051    -0.02300
C283        C  0.22269523  0.44567616  0.38825853     0.46800
H284        H  0.22278529  0.44577207  0.41671277    -0.02300
C285        C  0.18159229  0.42570979  0.33760226    -0.16000
C286        C  0.24224900  0.42433221  0.33746967    -0.15700
C287        C  0.24369550  0.48645387  0.33739606    -0.16100
C288        C  0.18222623  0.42616139  0.37266678    -0.16100
C289        C  0.24212758  0.42468192  0.37253791    -0.15700
C290        C  0.24355217  0.48608867  0.37247030    -0.16000
C291        C  0.22274106  0.44563310  0.08953122     0.46700
H292        H  0.22278160  0.44574038  0.06107699    -0.02300
C293        C  0.22263813  0.44542565  0.15618855     0.46800
H294        H  0.22263555  0.44535812  0.18460199    -0.02300
C295        C  0.18228736  0.42449456  0.10520203    -0.16000
C296        C  0.24383164  0.42626730  0.10515948    -0.15700
C297        C  0.24203342  0.48604152  0.10532787    -0.16100
C298        C  0.18172707  0.42402495  0.14027879    -0.16100
C299        C  0.24407694  0.42598817  0.14023201    -0.15700
C300        C  0.24214612  0.48642882  0.14038953    -0.16000
C301        C  0.00045599  0.33468463  0.20567374     0.46700
H302        H  0.00048663  0.33472965  0.17725869    -0.02300
C303        C  0.00027885  0.33453774  0.27227576     0.46800
H304        H  0.00020250  0.33447155  0.30069229    -0.02300
C305        C  0.31360932  0.35528946  0.22134910    -0.16000
C306        C  0.31313035  0.62700136  0.22130073    -0.15700
C307        C  0.04129398  0.35488956  0.22146544    -0.16100
C308        C  0.31375090  0.35545491  0.25652559    -0.16100
C309        C  0.31273775  0.62695078  0.25647084    -0.15700
C310        C  0.04116743  0.35453322  0.25665787    -0.16000
Zn311      Zn  0.02742049  0.64127847  0.00559761     1.49700
Zn312      Zn  0.00070682  0.33396682  0.93875637     1.49400
Zn313      Zn  0.28041968  0.64092037  0.00495777     1.49100
Zn314      Zn  0.02729421  0.38828852  0.00470776     1.49500
O315        O  0.00065006  0.33454149  0.98868872    -1.82900
O316        O  0.04670981  0.62209024  0.96689229    -0.73500
O317        O  0.28038861  0.63972628  0.91965928    -0.73300
O318        O  0.26981151  0.59527610  0.03425597    -0.72800
O319        O  0.02780070  0.64044652  0.92047050    -0.73500
O320        O  0.32580023  0.59564314  0.03478524    -0.73100
O321        O  0.24255863  0.62164675  0.96573992    -0.73700
O322        O  0.32540258  0.39885113  0.03382937    -0.73100
O323        O  0.02739504  0.38748925  0.91934595    -0.73800
O324        O  0.26962890  0.34284111  0.03402222    -0.73200
O325        O  0.04603410  0.42575209  0.96517487    -0.73700
O326        O  0.07328252  0.39955255  0.03381481    -0.73600
O327        O  0.07297249  0.34354064  0.03476450    -0.73400
C328        C  0.04448862  0.62408785  0.93459322     0.78400
C329        C  0.24714195  0.62340908  0.93347577     0.78900
C330        C  0.29066594  0.58121870  0.04387398     0.77900
C331        C  0.29038328  0.37797606  0.04326095     0.78200
C332        C  0.04388738  0.42088782  0.93294101     0.79400
C333        C  0.08739118  0.37878243  0.04359390     0.78400
Zn334      Zn  0.02720094  0.38831746  0.47288896     1.49700
Zn335      Zn  0.02703740  0.64127798  0.47222000     1.49400
Zn336      Zn  0.00057738  0.33425302  0.53897305     1.49100
Zn337      Zn  0.28035569  0.64141006  0.47283835     1.49500
O338        O  0.00044695  0.33462975  0.48904490    -1.82900
O339        O  0.07327796  0.39943122  0.44400475    -0.73500
O340        O  0.04622395  0.62203771  0.51095840    -0.73300
O341        O  0.02725268  0.38782268  0.55819771    -0.72800
O342        O  0.07275616  0.34331092  0.44313564    -0.73500
O343        O  0.04572038  0.42591282  0.51225894    -0.73100
O344        O  0.02778624  0.64086689  0.55739564    -0.73700
O345        O  0.24264591  0.62263972  0.51208782    -0.73100
O346        O  0.32512828  0.59565152  0.44298160    -0.73800
O347        O  0.28046448  0.64054522  0.55816402    -0.73200
O348        O  0.26922739  0.59543629  0.44370378    -0.73700
O349        O  0.26974651  0.34316607  0.44353284    -0.73600
O350        O  0.32563555  0.39905212  0.44361075    -0.73400
C351        C  0.08731496  0.37856669  0.43430791     0.78400
C352        C  0.04424419  0.62426609  0.54326141     0.78900
C353        C  0.04358887  0.42116197  0.54449905     0.77900
C354        C  0.24722994  0.62440329  0.54434060     0.78200
C355        C  0.28996787  0.58127215  0.43400498     0.79400
C356        C  0.29061076  0.37825308  0.43421190     0.78400
C357        C  0.14835588  0.40877458  0.08389803    -0.12000
C358        C  0.12051907  0.39548280  0.06546650    -0.13600
C359        C  0.25976810  0.52014433  0.08415296    -0.12000
C360        C  0.27403757  0.54808853  0.06579583    -0.13600
C361        C  0.26021835  0.40867528  0.08381121    -0.12000
C362        C  0.27386079  0.39453189  0.06526549    -0.13600
C363        C  0.30403280  0.56148650  0.20654333    -0.12100
C364        C  0.29602054  0.59144757  0.19986960     0.10100
C365        C  0.27046927  0.58688884  0.17332750    -0.12100
C366        C  0.25249599  0.55258003  0.15428955    -0.12100
C367        C  0.26016701  0.52243920  0.16120944     0.10100
C368        C  0.28585910  0.52707157  0.18765700    -0.12100
H369        H  0.32415627  0.56463290  0.22656249     0.14100
H370        H  0.26372087  0.60951392  0.16788785     0.14100
H371        H  0.23224152  0.54940281  0.13438974     0.14100
H372        H  0.29239710  0.50433811  0.19327226     0.14100
C373        C  0.24091458  0.38219618  0.18746281    -0.12100
C374        C  0.26200997  0.40792570  0.16099939     0.10100
C375        C  0.29987847  0.41578551  0.15417790    -0.12100
C376        C  0.31624989  0.39798837  0.17335489    -0.12100
C377        C  0.29522158  0.37240355  0.19991534     0.10100
C378        C  0.25718726  0.36419429  0.20648124    -0.12100
H379        H  0.21159950  0.37552313  0.19301229     0.14100
H380        H  0.31698116  0.43607765  0.13427521     0.14100
H381        H  0.34566723  0.40487592  0.16798729     0.14100
H382        H  0.24016942  0.34402041  0.22648957     0.14100
C383        C  0.14161818  0.42701833  0.18810637    -0.12100
C384        C  0.14567550  0.40620312  0.16106798     0.10100
C385        C  0.11502702  0.36874466  0.15370071    -0.12100
C386        C  0.08086069  0.35251786  0.17290177    -0.12100
C387        C  0.07689597  0.37323512  0.20006562     0.10100
C388        C  0.10733683  0.41090176  0.20714404    -0.12100
H389        H  0.16470953  0.45603839  0.19408832     0.14100
H390        H  0.11771060  0.35178767  0.13337483     0.14100
H391        H  0.05787026  0.32339715  0.16707696     0.14100
H392        H  0.10465973  0.42778489  0.22754453     0.14100
C393        C  0.12049037  0.39519915  0.41249228    -0.12000
C394        C  0.14832294  0.40900465  0.39404126    -0.13600
C395        C  0.25968041  0.52018961  0.39367945    -0.12000
C396        C  0.27326733  0.54811184  0.41208248    -0.13600
C397        C  0.27413401  0.39482718  0.41222471    -0.12000
C398        C  0.25992641  0.40846250  0.39378010    -0.13600
C399        C  0.29910653  0.55273426  0.32351198    -0.12100
C400        C  0.26137871  0.52244917  0.31658702     0.10100
C401        C  0.24020056  0.52690533  0.29013155    -0.12100
C402        C  0.25630727  0.56130491  0.27120669    -0.12100
C403        C  0.29424242  0.59139469  0.27788690     0.10100
C404        C  0.31528931  0.58699469  0.30446233    -0.12100
H405        H  0.31627178  0.54969007  0.34340432     0.14100
H406        H  0.21097510  0.50403661  0.28451882     0.14100
H407        H  0.23928359  0.56432574  0.25115767     0.14100
H408        H  0.01138428  0.60955787  0.30964920     0.14100
C409        C  0.25281479  0.36877349  0.32342772    -0.12100
C410        C  0.26056339  0.40665179  0.31669557     0.10100
C411        C  0.28650342  0.42800463  0.29043923    -0.12100
C412        C  0.30476376  0.41191596  0.27149801    -0.12100
C413        C  0.29661912  0.37383693  0.27796692     0.10100
C414        C  0.27086351  0.35260101  0.30434913    -0.12100
H415        H  0.23240861  0.35150525  0.34319624     0.14100
H416        H  0.29310295  0.45734805  0.28498500     0.14100
H417        H  0.32503035  0.42907386  0.25159937     0.14100
H418        H  0.26438386  0.65656102  0.30981001     0.14100
C419        C  0.08127346  0.39726548  0.30456937    -0.12100
C420        C  0.07657002  0.37138666  0.27824081     0.10100
C421        C  0.10626881  0.36293044  0.27190810    -0.12100
C422        C  0.14063378  0.38111074  0.29084953    -0.12100
C423        C  0.14547734  0.40729621  0.31696345     0.10100
C424        C  0.11551645  0.41525301  0.32363305    -0.12100
H425        H  0.05884685  0.40434270  0.30976272     0.14100
H426        H  0.10299127  0.67554354  0.25215927     0.14100
H427        H  0.16322640  0.37432635  0.28545596     0.14100
H428        H  0.11883103  0.43583315  0.34329024     0.14100
C429        C  0.06068398  0.45406165  0.91109781    -0.12000
C430        C  0.07497167  0.48193153  0.89267162    -0.13600
C431        C  0.18611679  0.59358719  0.89327789    -0.12000
C432        C  0.21385318  0.60681613  0.91181453    -0.13600
C433        C  0.06112181  0.60730058  0.91316475    -0.12000
C434        C  0.07448916  0.59321494  0.89433231    -0.13600
C435        C  0.19288783  0.57541879  0.78963405    -0.12100
C436        C  0.18843447  0.59653335  0.81615459     0.10100
C437        C  0.21863121  0.63432025  0.82313576    -0.12100
C438        C  0.25287446  0.65058635  0.80406621    -0.12100
C439        C  0.25730890  0.62948851  0.77751702     0.10100
C440        C  0.22724312  0.59156207  0.77075347    -0.12100
H441        H  0.17008135  0.54615227  0.78399583     0.12500
H442        H  0.21556204  0.65138765  0.84313508     0.14100
H443        H  0.27558897  0.67994090  0.80955050     0.14100
H444        H  0.23030345  0.57449844  0.75074461     0.14100
C445        C  0.01789598  0.60444283  0.80442888    -0.12100
C446        C  0.03903629  0.63035882  0.77807564     0.10100
C447        C  0.07730377  0.63911845  0.77190345    -0.12100
C448        C  0.09366841  0.62123531  0.79099333    -0.12100
C449        C  0.07239389  0.59499096  0.81710135     0.10100
C450        C  0.03436022  0.58675708  0.82368557    -0.12100
H451        H  0.98832040  0.59718976  0.80954147     0.14100
H452        H  0.09439371  0.65955611  0.75207847     0.14100
H453        H  0.12313241  0.62825159  0.78567069     0.14100
H454        H  0.01717622  0.56617405  0.84338245     0.14100
C455        C  0.08407539  0.45133702  0.82136333    -0.12100
C456        C  0.07442674  0.48032301  0.81577783     0.10100
C457        C  0.04674231  0.47451918  0.79090167    -0.12100
C458        C  0.02850930  0.43995611  0.77223351    -0.12100
C459        C  0.03829613  0.41104952  0.77772669     0.10100
C460        C  0.06598499  0.41686180  0.80258543    -0.12100
H461        H  0.10576823  0.45550384  0.84015466     0.14100
H462        H  0.03875819  0.49643275  0.78638776     0.14100
H463        H  0.33985471  0.43550131  0.75355862     0.14100
H464        H  0.07414187  0.39504781  0.80694067     0.14100
C465        C  0.06011218  0.45439415  0.56623537    -0.12000
C466        C  0.07385781  0.48223633  0.58467532    -0.13600
C467        C  0.21391697  0.60763962  0.56594449    -0.12000
C468        C  0.18606262  0.59346637  0.58434114    -0.13600
C469        C  0.07510632  0.59412518  0.58340376    -0.12000
C470        C  0.06106883  0.60762673  0.56465795    -0.13600
C471        C  0.03417383  0.45039307  0.65524794    -0.12100
C472        C  0.07222807  0.48027607  0.66171664     0.10100
C473        C  0.09368924  0.47540394  0.68763639    -0.12100
C474        C  0.07758276  0.44093288  0.70643157    -0.12100
C475        C  0.03942231  0.41115075  0.70010892     0.10100
C476        C  0.01798984  0.41602280  0.67417401    -0.12100
H477        H  0.01686268  0.45378977  0.63571613     0.14100
H478        H  0.12315905  0.49797314  0.69286627     0.14100
H479        H  0.09484259  0.43755462  0.72602713     0.14100
H480        H  0.32172557  0.39349182  0.66909051     0.14100
C481        C  0.19378258  0.62175386  0.68686508    -0.12100
C482        C  0.18852620  0.59487654  0.66129168     0.10100
C483        C  0.21811324  0.58627797  0.65500976    -0.12100
C484        C  0.25247141  0.60438379  0.67388976    -0.12100
C485        C  0.25762567  0.63102407  0.69963078     0.10100
C486        C  0.22825437  0.64002859  0.70563906    -0.12100
H487        H  0.17146605  0.62901237  0.69192402     0.14100
H488        H  0.21444535  0.56519784  0.63571560     0.14100
H489        H  0.27464211  0.59687254  0.66901133     0.14100
H490        H  0.23188077  0.66092734  0.72511076     0.14100
C491        C  0.04836843  0.57503535  0.68754940    -0.12100
C492        C  0.07352890  0.59607845  0.66072950     0.10100
C493        C  0.08046096  0.63358532  0.65350931    -0.12100
C494        C  0.06250580  0.64972703  0.67276766    -0.12100
C495        C  0.03766846  0.62885381  0.69981066     0.10100
C496        C  0.03020679  0.59108099  0.70666118    -0.12100
H497        H  0.04232310  0.54594252  0.69337346     0.14100
H498        H  0.10028457  0.65067792  0.63333409     0.14100
H499        H  0.06879671  0.67893586  0.66711564     0.14100
H500        H  0.01050945  0.57409047  0.72695299     0.14100
C501        C  0.11160701  0.89071499  0.65648715     0.46700
H502        H  0.11159375  0.89096939  0.68490213    -0.02300
C503        C  0.11177073  0.89006856  0.58982298     0.46800
H504        H  0.11184428  0.88977606  0.56136675    -0.02300
C505        C  0.09204802  0.91187124  0.64020326    -0.16000
C506        C  0.15253105  0.91014649  0.64063870    -0.15700
C507        C  0.09023575  0.84963896  0.64087548    -0.16100
C508        C  0.09246128  0.91131606  0.60512003    -0.16100
C509        C  0.15210294  0.90953678  0.60559009    -0.15700
C510        C  0.09056843  0.84980977  0.60582295    -0.16000
C511        C  0.11158511  0.89053712  0.82120536     0.46700
H512        H  0.11146690  0.89083563  0.79279087    -0.02300
C513        C  0.11183093  0.88964826  0.88786735     0.46800
H514        H  0.11192349  0.88925678  0.91632038    -0.02300
C515        C  0.15252528  0.91177245  0.83702407    -0.16000
C516        C  0.09028499  0.90987831  0.83761443    -0.15700
C517        C  0.09219487  0.84942390  0.83671763    -0.16100
C518        C  0.15217105  0.91096782  0.87208526    -0.16100
C519        C  0.09071114  0.90916811  0.87268191    -0.15700
C520        C  0.09248722  0.84944361  0.87175564    -0.16000
C521        C  0.00052507  0.66803766  0.70549793     0.46700
H522        H  0.00055365  0.66810149  0.67708006    -0.02300
C523        C  0.33372203  0.66790340  0.77212553     0.46800
H524        H  0.33368281  0.66795072  0.80054526    -0.02300
C525        C  0.02057049  0.98061924  0.72139653    -0.16000
C526        C  0.02126328  0.70886574  0.72126847    -0.15700
C527        C  0.29304136  0.98146093  0.72120130    -0.16100
C528        C  0.02071135  0.98081393  0.75661306    -0.16100
C529        C  0.02101260  0.70879484  0.75639762    -0.15700
C530        C  0.29293182  0.98122947  0.75635840    -0.16000
C531        C  0.22241835  0.77855911  0.32161227     0.46700
H532        H  0.22228932  0.77839602  0.29319684    -0.02300
C533        C  0.22272273  0.77897045  0.38828420     0.46800
H534        H  0.22284415  0.77914641  0.41673813    -0.02300
C535        C  0.18156987  0.75881012  0.33766411    -0.16000
C536        C  0.24228839  0.75755295  0.33754231    -0.15700
C537        C  0.24363836  0.81961224  0.33733796    -0.16100
C538        C  0.18223535  0.75935731  0.37272747    -0.16100
C539        C  0.24219746  0.75798775  0.37261468    -0.15700
C540        C  0.24351424  0.81934186  0.37240901    -0.16000
C541        C  0.22275188  0.77892558  0.08945027     0.46700
H542        H  0.22277095  0.77906753  0.06099676    -0.02300
C543        C  0.22271904  0.77864136  0.15610665     0.46800
H544        H  0.22274551  0.77854727  0.18452008    -0.02300
C545        C  0.18230602  0.75773277  0.10513940    -0.16000
C546        C  0.24389076  0.75957121  0.10502586    -0.15700
C547        C  0.24201273  0.81931719  0.10528801    -0.16100
C548        C  0.18179599  0.75722214  0.14021964    -0.16100
C549        C  0.24416339  0.75924556  0.14009728    -0.15700
C550        C  0.24217773  0.81965915  0.14034887    -0.16000
C551        C  0.00062747  0.66794456  0.20557827     0.46700
H552        H  0.00070987  0.66798694  0.17716303    -0.02300
C553        C  0.00032281  0.66777844  0.27217730     0.46800
H554        H  0.00019436  0.66769859  0.30059334    -0.02300
C555        C  0.31371654  0.68860141  0.22130729    -0.16000
C556        C  0.31317605  0.96021129  0.22128007    -0.15700
C557        C  0.04143023  0.68804379  0.22143927    -0.16100
C558        C  0.31383183  0.68877638  0.25648812    -0.16100
C559        C  0.31280737  0.96012719  0.25644530    -0.15700
C560        C  0.04123266  0.68767022  0.25663010    -0.16000
Zn561      Zn  0.02741039  0.97457675  0.00564821     1.49700
Zn562      Zn  0.00066853  0.66715515  0.93866379     1.49400
Zn563      Zn  0.28042043  0.97442737  0.00502387     1.49100
Zn564      Zn  0.02718171  0.72143147  0.00464552     1.49500
O565        O  0.00056366  0.66770006  0.98859406    -1.82900
O566        O  0.04677093  0.95546080  0.96695427    -0.73500
O567        O  0.28049171  0.97301625  0.91969629    -0.73300
O568        O  0.26971320  0.92876067  0.03436722    -0.72800
O569        O  0.02803212  0.97396738  0.92052417    -0.73500
O570        O  0.32562002  0.92895898  0.03485442    -0.73100
O571        O  0.24261543  0.95511998  0.96574509    -0.73700
O572        O  0.32540501  0.73212283  0.03367087    -0.73100
O573        O  0.02738377  0.72068117  0.91927497    -0.73800
O574        O  0.26966440  0.67609166  0.03397033    -0.73200
O575        O  0.04589059  0.75890822  0.96512581    -0.73700
O576        O  0.07317708  0.73273801  0.03380169    -0.73600
O577        O  0.07296988  0.67677755  0.03465601    -0.73400
C578        C  0.04467322  0.95756198  0.93465584     0.78400
C579        C  0.24722756  0.95674900  0.93348454     0.78900
C580        C  0.29049999  0.91461249  0.04395802     0.77900
C581        C  0.29040490  0.71124759  0.04314473     0.78200
C582        C  0.04380067  0.75406836  0.93288972     0.79400
C583        C  0.08734331  0.71200177  0.04353984     0.78400
Zn584      Zn  0.02731556  0.72171592  0.47302062     1.49700
Zn585      Zn  0.02708438  0.97451488  0.47210011     1.49400
Zn586      Zn  0.00070139  0.66764136  0.53910998     1.49100
Zn587      Zn  0.28033217  0.97474575  0.47270353     1.49500
O588        O  0.00050286  0.66802270  0.48917604    -1.82900
O589        O  0.07338232  0.73277435  0.44414474    -0.73500
O590        O  0.04611446  0.95516745  0.51086823    -0.73300
O591        O  0.02745324  0.72122483  0.55832609    -0.72800
O592        O  0.07269536  0.67657297  0.44319689    -0.73500
O593        O  0.04584208  0.75931605  0.51238696    -0.73100
O594        O  0.02774619  0.97412877  0.55726645    -0.73700
O595        O  0.24258395  0.95600328  0.51197533    -0.73100
O596        O  0.32508312  0.92893977  0.44284674    -0.73800
O597        O  0.28043621  0.97391311  0.55802620    -0.73200
O598        O  0.26920341  0.92877767  0.44354547    -0.73700
O599        O  0.26989468  0.67665242  0.44371851    -0.73600
O600        O  0.32579381  0.73252116  0.44380715    -0.73400
C601        C  0.08733738  0.71185114  0.43440669     0.78400
C602        C  0.04411382  0.95742182  0.54316577     0.78900
C603        C  0.04375861  0.75456457  0.54462676     0.77900
C604        C  0.24718815  0.95778316  0.54423071     0.78200
C605        C  0.28993467  0.91460113  0.43384405     0.79400
C606        C  0.29076634  0.71173922  0.43440648     0.78400
C607        C  0.14833741  0.74201209  0.08385409    -0.12000
C608        C  0.12048466  0.72871850  0.06542487    -0.13600
C609        C  0.25961585  0.85346022  0.08415374    -0.12000
C610        C  0.27382073  0.88144948  0.06584595    -0.13600
C611        C  0.26025419  0.74199147  0.08364453    -0.12000
C612        C  0.27388784  0.72783059  0.06511465    -0.13600
C613        C  0.30421696  0.89477353  0.20641316    -0.12100
C614        C  0.29607290  0.92466528  0.19984112     0.10100
C615        C  0.27035711  0.92002323  0.17342557    -0.12100
C616        C  0.25236693  0.88570806  0.15439963    -0.12100
C617        C  0.26018930  0.85564713  0.16119789     0.10100
C618        C  0.28603852  0.86035500  0.18752658    -0.12100
H619        H  0.32444965  0.89798044  0.22634912     0.14100
H620        H  0.26349611  0.94258800  0.16807892     0.14100
H621        H  0.23199180  0.88246658  0.13459447     0.14100
H622        H  0.29268802  0.83767866  0.19304741     0.14100
C623        C  0.24099814  0.71543550  0.18732304    -0.12100
C624        C  0.26208079  0.74113200  0.16083269     0.10100
C625        C  0.29993647  0.74895613  0.15400001    -0.12100
C626        C  0.31631888  0.73119190  0.17321573    -0.12100
C627        C  0.29531558  0.70567273  0.19982609     0.10100
C628        C  0.25727991  0.69746562  0.20637731    -0.12100
H629        H  0.21169017  0.70877910  0.19288126     0.14100
H630        H  0.31703226  0.76921604  0.13407552     0.14100
H631        H  0.34573135  0.73806575  0.16784494     0.14100
H632        H  0.24027184  0.67732928  0.22641208     0.14100
C633        C  0.14178819  0.76010786  0.18816457    -0.12100
C634        C  0.14579119  0.73934637  0.16105190     0.10100
C635        C  0.11514332  0.70189681  0.15366495    -0.12100
C636        C  0.08100018  0.68564689  0.17289501    -0.12100
C637        C  0.07706660  0.70633833  0.20009876     0.10100
C638        C  0.10753279  0.74397159  0.20722802    -0.12100
H639        H  0.16488999  0.78911500  0.19416995     0.14100
H640        H  0.11780099  0.68497655  0.13329001     0.14100
H641        H  0.05798963  0.65654538  0.16703958     0.14100
H642        H  0.10487978  0.76083172  0.22766342     0.14100
C643        C  0.12051617  0.72844347  0.41258760    -0.12000
C644        C  0.14834666  0.74222271  0.39412951    -0.13600
C645        C  0.25965215  0.85350615  0.39353568    -0.12000
C646        C  0.27323370  0.88145484  0.41190594    -0.13600
C647        C  0.27429924  0.72831173  0.41240197    -0.12000
C648        C  0.26006521  0.74188018  0.39390844    -0.13600
C649        C  0.29921788  0.88571895  0.32328043    -0.12100
C650        C  0.26139346  0.85555945  0.31646909     0.10100
C651        C  0.24018248  0.86012376  0.29011194    -0.12100
C652        C  0.25633718  0.89453514  0.27120020    -0.12100
C653        C  0.29433821  0.92453033  0.27780676     0.10100
C654        C  0.31544655  0.91999549  0.30424580    -0.12100
H655        H  0.31639458  0.88257697  0.34310354     0.14100
H656        H  0.21089153  0.83734212  0.28458369     0.14100
H657        H  0.23928675  0.89765542  0.25123648     0.14100
H658        H  0.01150055  0.94272034  0.30957813     0.14100
C659        C  0.25309857  0.70212031  0.32360100    -0.12100
C660        C  0.26066068  0.73991802  0.31678155     0.10100
C661        C  0.28641086  0.76121573  0.29039000    -0.12100
C662        C  0.30465881  0.74515263  0.27139529    -0.12100
C663        C  0.29667900  0.70714056  0.27793646     0.10100
C664        C  0.27112434  0.68596760  0.30446282    -0.12100
H665        H  0.23283311  0.68488380  0.34346702     0.14100
H666        H  0.29287058  0.79050097  0.28486332     0.14100
H667        H  0.32479115  0.76228289  0.25140594     0.14100
H668        H  0.26387616  0.98959485  0.30958966     0.14100
C669        C  0.08125228  0.73028901  0.30461166    -0.12100
C670        C  0.07657426  0.70442264  0.27828253     0.10100
C671        C  0.10624922  0.69591547  0.27200834    -0.12100
C672        C  0.14059609  0.71408665  0.29097778    -0.12100
C673        C  0.14543687  0.74031061  0.31705626     0.10100
C674        C  0.11547351  0.74826836  0.32369765    -0.12100
H675        H  0.05883733  0.73739213  0.30976848     0.14100
H676        H  0.10291838  0.00895213  0.25209522     0.14100
H677        H  0.16318859  0.70729316  0.28561509     0.14100
H678        H  0.11878196  0.76886936  0.34333094     0.14100
C679        C  0.06057742  0.78726025  0.91106870    -0.12000
C680        C  0.07486904  0.81515379  0.89267027    -0.13600
C681        C  0.18618302  0.92676844  0.89328423    -0.12000
C682        C  0.21394583  0.94006078  0.91179998    -0.13600
C683        C  0.06137049  0.94080688  0.91325494    -0.12000
C684        C  0.07473033  0.92666904  0.89446789    -0.13600
C685        C  0.19300959  0.90870321  0.78975620    -0.12100
C686        C  0.18841421  0.92981690  0.81618971     0.10100
C687        C  0.21845971  0.96769955  0.82309224    -0.12100
C688        C  0.25271357  0.98406550  0.80403370    -0.12100
C689        C  0.25729898  0.96296145  0.77758186     0.10100
C690        C  0.22737237  0.92495067  0.77088233    -0.12100
H691        H  0.17031025  0.87936847  0.78418254     0.12500
H692        H  0.21526567  0.98474870  0.84303421     0.14100
H693        H  0.27532104  0.01348550  0.80945638     0.14100
H694        H  0.23055507  0.90789991  0.75093413     0.14100
C695        C  0.01821015  0.93829634  0.80481679    -0.12100
C696        C  0.03919782  0.96387350  0.77821170     0.10100
C697        C  0.07733074  0.97231031  0.77182085    -0.12100
C698        C  0.09366076  0.95438063  0.79089614    -0.12100
C699        C  0.07251586  0.92843923  0.81723347     0.10100
C700        C  0.03464400  0.92057326  0.82406112    -0.12100
H701        H  0.98874648  0.93129490  0.81012350     0.14100
H702        H  0.09434010  0.99251794  0.75182695     0.14100
H703        H  0.12300542  0.96113214  0.78537787     0.14100
H704        H  0.01753053  0.90021253  0.84392062     0.14100
C705        C  0.08397593  0.78460315  0.82136972    -0.12100
C706        C  0.07435625  0.81360881  0.81577212     0.10100
C707        C  0.04674166  0.80784864  0.79083648    -0.12100
C708        C  0.02854265  0.77330648  0.77213221    -0.12100
C709        C  0.03829655  0.74437772  0.77764769     0.10100
C710        C  0.06592126  0.75015206  0.80255784    -0.12100
H711        H  0.10562529  0.78873747  0.84019567     0.14100
H712        H  0.03878508  0.82977908  0.78630299     0.14100
H713        H  0.34008268  0.76895366  0.75329215     0.14100
H714        H  0.07405888  0.72832637  0.80692906     0.14100
C715        C  0.06028766  0.78779736  0.56636103    -0.12000
C716        C  0.07401745  0.81565014  0.58478650    -0.13600
C717        C  0.21389748  0.94107225  0.56588285    -0.12000
C718        C  0.18609296  0.92696800  0.58435072    -0.13600
C719        C  0.07491351  0.92730109  0.58338867    -0.12000
C720        C  0.06085427  0.94073729  0.56459959    -0.13600
C721        C  0.03420731  0.78396665  0.65539235    -0.12100
C722        C  0.07231986  0.81376073  0.66179502     0.10100
C723        C  0.09382439  0.80877566  0.68759871    -0.12100
C724        C  0.07770400  0.77426172  0.70633358    -0.12100
C725        C  0.03949846  0.74455325  0.70005710     0.10100
C726        C  0.01801190  0.74955209  0.67425554    -0.12100
H727        H  0.01687787  0.78745861  0.63593990     0.14100
H728        H  0.12333523  0.83128406  0.69277412     0.14100
H729        H  0.09498370  0.77078898  0.72584938     0.14100
H730        H  0.32182940  0.72713327  0.66922940     0.14100
C731        C  0.19383547  0.95539374  0.68686636    -0.12100
C732        C  0.18854480  0.92845650  0.66133767     0.10100
C733        C  0.21806438  0.91974499  0.65513784    -0.12100
C734        C  0.25239927  0.93780144  0.67404764    -0.12100
C735        C  0.25759690  0.96450838  0.69973584     0.10100
C736        C  0.22828453  0.97361314  0.70567931    -0.12100
H737        H  0.17156167  0.96272735  0.69186553     0.14100
H738        H  0.21435897  0.89861263  0.63588240     0.14100
H739        H  0.27452239  0.93021066  0.66922755     0.14100
H740        H  0.23194722  0.99456023  0.72511825     0.14100
C741        C  0.04837226  0.90843339  0.68763586    -0.12100
C742        C  0.07340601  0.92941644  0.66072290     0.10100
C743        C  0.08022780  0.96686812  0.65342702    -0.12100
C744        C  0.06233249  0.98303511  0.67272873    -0.12100
C745        C  0.03765934  0.96224372  0.69988719     0.10100
C746        C  0.03025477  0.92449886  0.70678374    -0.12100
H747        H  0.04240605  0.87937836  0.69351768     0.14100
H748        H  0.09994936  0.98391662  0.63317827     0.14100
H749        H  0.06856152  0.01221442  0.66702465     0.14100
H750        H  0.01066122  0.90755877  0.72715321     0.14100
C751        C  0.44477074  0.22395393  0.65638138     0.46700
H752        H  0.44471164  0.22415747  0.68479639    -0.02300
C753        C  0.44504157  0.22343894  0.58971872     0.46800
H754        H  0.44516473  0.22320943  0.56126200    -0.02300
C755        C  0.42525453  0.24515530  0.64011846    -0.16000
C756        C  0.48571835  0.24339672  0.64058716    -0.15700
C757        C  0.42341955  0.18290919  0.64070315    -0.16100
C758        C  0.42574095  0.24468701  0.60503760    -0.16100
C759        C  0.48534394  0.24284435  0.60553781    -0.15700
C760        C  0.42380173  0.18314388  0.60564841    -0.16000
C761        C  0.44480991  0.22392103  0.82134936     0.46700
H762        H  0.44470925  0.22421014  0.79293495    -0.02300
C763        C  0.44500000  0.22305573  0.88800945     0.46800
H764        H  0.44506099  0.22267194  0.91646353    -0.02300
C765        C  0.48573561  0.24514802  0.83720071    -0.16000
C766        C  0.42350369  0.24326466  0.83771474    -0.15700
C767        C  0.42539095  0.18281951  0.83686526    -0.16100
C768        C  0.48534941  0.24435374  0.87226408    -0.16100
C769        C  0.42392575  0.24258874  0.87277874    -0.15700
C770        C  0.42564922  0.18285165  0.87190286    -0.16000
C771        C  0.33387413  0.00144566  0.70557303     0.46700
H772        H  0.33388111  0.00146532  0.67715556    -0.02300
C773        C  0.66708864  0.00137147  0.77220674     0.46800
H774        H  0.66705453  0.00145615  0.80062597    -0.02300
C775        C  0.35358864  0.31368853  0.72134952    -0.16000
C776        C  0.35463819  0.04229346  0.72129797    -0.15700
C777        C  0.62614448  0.31462546  0.72127104    -0.16100
C778        C  0.35371348  0.31383739  0.75656533    -0.16100
C779        C  0.35440182  0.04226948  0.75643204    -0.15700
C780        C  0.62604694  0.31434409  0.75643182    -0.16000
C781        C  0.55580524  0.11199044  0.32151511     0.46700
H782        H  0.55566096  0.11182938  0.29309966    -0.02300
C783        C  0.55617074  0.11237739  0.38819058     0.46800
H784        H  0.55631821  0.11254214  0.41664445    -0.02300
C785        C  0.51496630  0.09220110  0.33759428    -0.16000
C786        C  0.57570792  0.09099903  0.33742726    -0.15700
C787        C  0.57699976  0.15304713  0.33724882    -0.16100
C788        C  0.51566638  0.09271707  0.37265935    -0.16100
C789        C  0.57566586  0.09144037  0.37249305    -0.15700
C790        C  0.57692014  0.15275283  0.37232188    -0.16000
C791        C  0.55617203  0.11233475  0.08954652     0.46700
H792        H  0.55625606  0.11245358  0.06109229    -0.02300
C793        C  0.55597784  0.11210186  0.15620112     0.46800
H794        H  0.55594121  0.11203195  0.18461433    -0.02300
C795        C  0.51569252  0.09111357  0.10516743    -0.16000
C796        C  0.57731126  0.09303409  0.10520970    -0.15700
C797        C  0.57537395  0.15273703  0.10535047    -0.16100
C798        C  0.51508750  0.09064293  0.14024777    -0.16100
C799        C  0.57750401  0.09272537  0.14028697    -0.15700
C800        C  0.57542836  0.15311003  0.14040968    -0.16000
C801        C  0.33385015  0.00114953  0.20564632     0.46700
H802        H  0.33389823  0.00120687  0.17723159    -0.02300
C803        C  0.33362166  0.00095596  0.27224911     0.46800
H804        H  0.33351171  0.00086655  0.30066595    -0.02300
C805        C  0.64690974  0.02180178  0.22139872    -0.16000
C806        C  0.64631779  0.29372106  0.22127362    -0.15700
C807        C  0.37467654  0.02138155  0.22146605    -0.16100
C808        C  0.64704296  0.02192816  0.25657559    -0.16100
C809        C  0.64595029  0.29366286  0.25644216    -0.15700
C810        C  0.37452374  0.02099273  0.25666134    -0.16000
Zn811      Zn  0.36080156  0.30806989  0.00572227     1.49700
Zn812      Zn  0.33411526  0.00059438  0.93873646     1.49400
Zn813      Zn  0.61377443  0.30769670  0.00509861     1.49100
Zn814      Zn  0.36066499  0.05485858  0.00475547     1.49500
O815        O  0.33397852  0.00113367  0.98867150    -1.82900
O816        O  0.38022176  0.28903593  0.96703913    -0.73500
O817        O  0.61367722  0.30651462  0.91976860    -0.73300
O818        O  0.60321007  0.26203546  0.03436059    -0.72800
O819        O  0.36132585  0.30738189  0.92060028    -0.73500
O820        O  0.65919699  0.26240345  0.03485250    -0.73100
O821        O  0.57589891  0.28838442  0.96588652    -0.73700
O822        O  0.65891133  0.06554632  0.03389973    -0.73100
O823        O  0.36063936  0.05412933  0.91939737    -0.73800
O824        O  0.60299794  0.00968453  0.03393515    -0.73200
O825        O  0.37923391  0.09233936  0.96526328    -0.73700
O826        O  0.40674020  0.06610256  0.03372783    -0.73600
O827        O  0.40629100  0.01002241  0.03472551    -0.73400
C828        C  0.37805247  0.29107523  0.93474264     0.78400
C829        C  0.58044209  0.29014533  0.93361676     0.78900
C830        C  0.62406408  0.24796611  0.04394799     0.77900
C831        C  0.62385454  0.04477268  0.04326240     0.78200
C832        C  0.37704699  0.08750703  0.93302751     0.79400
C833        C  0.42079951  0.04529053  0.04351251     0.78400
Zn834      Zn  0.36076728  0.05496888  0.47284130     1.49700
Zn835      Zn  0.36034955  0.30792014  0.47209594     1.49400
Zn836      Zn  0.33405938  0.00096807  0.53898192     1.49100
Zn837      Zn  0.61356954  0.30795849  0.47267633     1.49500
O838        O  0.33387283  0.00129235  0.48904722    -1.82900
O839        O  0.40682954  0.06590933  0.44403075    -0.73500
O840        O  0.37952135  0.28871667  0.51085223    -0.73300
O841        O  0.36089289  0.05458350  0.55814867    -0.72800
O842        O  0.40610801  0.00968882  0.44317071    -0.73500
O843        O  0.37932331  0.09261989  0.51217366    -0.73100
O844        O  0.36091129  0.30741289  0.55726528    -0.73700
O845        O  0.57581743  0.28912734  0.51194468    -0.73100
O846        O  0.65856195  0.26238932  0.44278537    -0.73800
O847        O  0.61367068  0.30724206  0.55799815    -0.73200
O848        O  0.60259439  0.26204981  0.44352138    -0.73700
O849        O  0.60329428  0.01006412  0.44358958    -0.73600
O850        O  0.65928563  0.06584172  0.44355894    -0.73400
C851        C  0.42078018  0.04496415  0.43435177     0.78400
C852        C  0.37744584  0.29088271  0.54314998     0.78900
C853        C  0.37722550  0.08790916  0.54441870     0.77900
C854        C  0.58042546  0.29100775  0.54420114     0.78200
C855        C  0.62339928  0.24796752  0.43379777     0.79400
C856        C  0.62423328  0.04511792  0.43420673     0.78400
C857        C  0.48178607  0.07531543  0.08381333    -0.12000
C858        C  0.45395737  0.06197759  0.06536244    -0.13600
C859        C  0.59313247  0.18685534  0.08419041    -0.12000
C860        C  0.60743258  0.21481314  0.06584716    -0.13600
C861        C  0.59376004  0.07549879  0.08386698    -0.12000
C862        C  0.60740393  0.06137726  0.06529650    -0.13600
C863        C  0.63729677  0.22825488  0.20649326    -0.12100
C864        C  0.62919355  0.25815829  0.19985159     0.10100
C865        C  0.60354656  0.25352097  0.17336823    -0.12100
C866        C  0.58559394  0.21919450  0.15434401    -0.12100
C867        C  0.59337225  0.18911726  0.16123335     0.10100
C868        C  0.61913885  0.19382502  0.18763230    -0.12100
H869        H  0.65748921  0.23146151  0.22646730     0.14100
H870        H  0.59672654  0.27610182  0.16795632     0.14100
H871        H  0.56529098  0.21595842  0.13446893     0.14100
H872        H  0.62575893  0.17114264  0.19321984     0.14100
C873        C  0.57432529  0.04896149  0.18759012    -0.12100
C874        C  0.59541299  0.07463636  0.16108586     0.10100
C875        C  0.63323958  0.08238044  0.15423118    -0.12100
C876        C  0.64956171  0.06451394  0.17338691    -0.12100
C877        C  0.62854018  0.03897128  0.19997599     0.10100
C878        C  0.59055071  0.03089088  0.20659135    -0.12100
H879        H  0.54504295  0.04236884  0.19317797     0.14100
H880        H  0.65035525  0.10263642  0.13431222     0.14100
H881        H  0.67894636  0.07132227  0.16797900     0.14100
H882        H  0.57352576  0.01075814  0.22662200     0.14100
C883        C  0.47499604  0.09354555  0.18813485    -0.12100
C884        C  0.47902168  0.07279467  0.16102023     0.10100
C885        C  0.44835718  0.03536065  0.15360612    -0.12100
C886        C  0.41421134  0.01909763  0.17283564    -0.12100
C887        C  0.41028328  0.03974933  0.20007722     0.10100
C888        C  0.44073868  0.07738990  0.20720568    -0.12100
H889        H  0.49809731  0.12254681  0.19415828     0.14100
H890        H  0.45101588  0.01843956  0.13323387     0.14100
H891        H  0.39120820  0.98999609  0.16696919     0.14100
H892        H  0.43808765  0.09422969  0.22766121     0.14100
C893        C  0.45397504  0.06154497  0.41255107    -0.12000
C894        C  0.48179780  0.07542982  0.39408327    -0.13600
C895        C  0.59312367  0.18689840  0.39346879    -0.12000
C896        C  0.60675039  0.21483466  0.41185078    -0.13600
C897        C  0.60780188  0.06172911  0.41220278    -0.12000
C898        C  0.59356068  0.07532353  0.39374641    -0.13600
C899        C  0.63245254  0.21926073  0.32324515    -0.12100
C900        C  0.59467223  0.18902693  0.31640318     0.10100
C901        C  0.57341932  0.19357120  0.29006800    -0.12100
C902        C  0.58949917  0.22802004  0.27120273    -0.12100
C903        C  0.62747280  0.25807467  0.27782790     0.10100
C904        C  0.64860245  0.25356965  0.30426253    -0.12100
H905        H  0.64967033  0.21614942  0.34304527     0.14100
H906        H  0.54415782  0.17074125  0.28451611     0.14100
H907        H  0.57242647  0.23110909  0.25124166     0.14100
H908        H  0.34485168  0.27610502  0.30952243     0.14100
C909        C  0.58617219  0.03537758  0.32344510    -0.12100
C910        C  0.59399199  0.07327477  0.31668975     0.10100
C911        C  0.61998689  0.09460744  0.29046591    -0.12100
C912        C  0.63822006  0.07846956  0.27156111    -0.12100
C913        C  0.62997619  0.04035843  0.27802469     0.10100
C914        C  0.60418332  0.01914910  0.30439202    -0.12100
H915        H  0.56573959  0.01814269  0.34321045     0.14100
H916        H  0.62664389  0.12396808  0.28500803     0.14100
H917        H  0.65852811  0.09560663  0.25168029     0.14100
H918        H  0.59749003  0.32328303  0.30970299     0.14100
C919        C  0.41458805  0.06363456  0.30463488    -0.12100
C920        C  0.40990307  0.03779501  0.27827625     0.10100
C921        C  0.43959699  0.02932873  0.27194997    -0.12100
C922        C  0.47396020  0.04750104  0.29089935    -0.12100
C923        C  0.47880707  0.07369136  0.31701149     0.10100
C924        C  0.44882766  0.08161434  0.32370436    -0.12100
H925        H  0.39215830  0.07070513  0.30983564     0.14100
H926        H  0.43638556  0.34258517  0.25205118     0.14100
H927        H  0.49656118  0.04073181  0.28549491     0.14100
H928        H  0.45213633  0.10218460  0.34336888     0.14100
C929        C  0.39372800  0.12069751  0.91122176    -0.12000
C930        C  0.40799785  0.14858094  0.89282157    -0.13600
C931        C  0.51933155  0.26014844  0.89349941    -0.12000
C932        C  0.54711138  0.27346099  0.91199430    -0.13600
C933        C  0.39473095  0.27433036  0.91334295    -0.12000
C934        C  0.40801487  0.26015641  0.89453184    -0.13600
C935        C  0.52598999  0.24208600  0.78973881    -0.12100
C936        C  0.52162569  0.26312366  0.81637608     0.10100
C937        C  0.55187583  0.30085451  0.82344986    -0.12100
C938        C  0.58609489  0.31713826  0.80435601    -0.12100
C939        C  0.59043815  0.29611946  0.77768417     0.10100
C940        C  0.56031790  0.25824660  0.77083167    -0.12100
H941        H  0.50313722  0.21286260  0.78402881     0.12500
H942        H  0.54886503  0.31787290  0.84353081     0.14100
H943        H  0.60885679  0.34644914  0.80991514     0.14100
H944        H  0.56331745  0.24122968  0.75074271     0.14100
C945        C  0.35126439  0.27138140  0.80479574    -0.12100
C946        C  0.37220552  0.29689691  0.77813998     0.10100
C947        C  0.41034706  0.30537466  0.77174167    -0.12100
C948        C  0.42674917  0.28756781  0.79088154    -0.12100
C949        C  0.40566707  0.26171512  0.81728932     0.10100
C950        C  0.36777324  0.25378389  0.82410862    -0.12100
H951        H  0.32179490  0.26435705  0.81010874     0.14100
H952        H  0.42732266  0.32554802  0.75171534     0.14100
H953        H  0.45610479  0.29435516  0.78536419     0.14100
H954        H  0.35070732  0.23347672  0.84401886     0.14100
C955        C  0.41711036  0.11796175  0.82158708    -0.12100
C956        C  0.40757673  0.14701411  0.81591043     0.10100
C957        C  0.38011888  0.14134030  0.79084113    -0.12100
C958        C  0.36198453  0.10683303  0.77208451    -0.12100
C959        C  0.37165870  0.07785860  0.77767661     0.10100
C960        C  0.39912451  0.08354915  0.80272288    -0.12100
H961        H  0.43865012  0.12203294  0.84050747     0.14100
H962        H  0.37223314  0.16331100  0.78623997     0.14100
H963        H  0.67401137  0.10276478  0.75300422     0.14100
H964        H  0.40719254  0.06168458  0.80716614     0.14100
C965        C  0.39373023  0.12117168  0.56612521    -0.12000
C966        C  0.40737440  0.14902222  0.58455751    -0.13600
C967        C  0.54714725  0.27431044  0.56585811    -0.12000
C968        C  0.51935499  0.26024378  0.58433478    -0.13600
C969        C  0.40829096  0.26078283  0.58332811    -0.12000
C970        C  0.39425555  0.27426061  0.56456461    -0.13600
C971        C  0.36755894  0.11707308  0.65508717    -0.12100
C972        C  0.40557377  0.14701394  0.66159426     0.10100
C973        C  0.42703980  0.14221424  0.68755174    -0.12100
C974        C  0.41097279  0.10776023  0.70636198    -0.12100
C975        C  0.37284395  0.07792800  0.70001860     0.10100
C976        C  0.35141087  0.08271997  0.67403264    -0.12100
H977        H  0.35024864  0.12041595  0.63551957     0.14100
H978        H  0.45648178  0.16483216  0.69280608     0.14100
H979        H  0.42823284  0.10443896  0.72599335     0.14100
H980        H  0.65521141  0.06022695  0.66904023     0.14100
C981        C  0.52697409  0.28860187  0.68685809    -0.12100
C982        C  0.52169495  0.26166069  0.66133601     0.10100
C983        C  0.55119634  0.25291235  0.65518405    -0.12100
C984        C  0.58550972  0.27095155  0.67412523    -0.12100
C985        C  0.59070783  0.29768165  0.69979258     0.10100
C986        C  0.56140518  0.30680870  0.70570065    -0.12100
H987        H  0.50470645  0.29595529  0.69182548     0.14100
H988        H  0.54749707  0.23177650  0.63593803     0.14100
H989        H  0.60762333  0.26333679  0.66933851     0.14100
H990        H  0.56506050  0.32775483  0.72513294     0.14100
C991        C  0.38140506  0.24155890  0.68746064    -0.12100
C992        C  0.40656518  0.26264562  0.66065056     0.10100
C993        C  0.41345920  0.30014361  0.65346168    -0.12100
C994        C  0.39550636  0.31625351  0.67276134    -0.12100
C995        C  0.37070541  0.29535786  0.69981654     0.10100
C996        C  0.36324085  0.25757437  0.70661551    -0.12100
H997        H  0.37538707  0.21247058  0.69325943     0.14100
H998        H  0.43327605  0.31726815  0.63329429     0.14100
H999        H  0.40179135  0.34546638  0.66714354     0.14100
H1000       H  0.34357007  0.24057026  0.72691909     0.14100
C1001       C  0.44489315  0.55716041  0.65645551     0.46700
H1002       H  0.44487166  0.55742039  0.68487006    -0.02300
C1003       C  0.44506806  0.55652199  0.58979369     0.46800
H1004       H  0.44514975  0.55623568  0.56133745    -0.02300
C1005       C  0.42542912  0.57840497  0.64016800    -0.16000
C1006       C  0.48581579  0.57649783  0.64061846    -0.15700
C1007       C  0.42344254  0.51608785  0.64084728    -0.16100
C1008       C  0.42584608  0.57785793  0.60508663    -0.16100
C1009       C  0.48539229  0.57589585  0.60557127    -0.15700
C1010       C  0.42378219  0.51626364  0.60579145    -0.16000
C1011       C  0.44490879  0.55710999  0.82111744     0.46700
H1012       H  0.44479403  0.55736953  0.79270188    -0.02300
C1013       C  0.44512757  0.55632146  0.88778439     0.46800
H1014       H  0.44520737  0.55597058  0.91623842    -0.02300
C1015       C  0.48584244  0.57834163  0.83695057    -0.16000
C1016       C  0.42362481  0.57648870  0.83747326    -0.15700
C1017       C  0.42548404  0.51602352  0.83668543    -0.16100
C1018       C  0.48546964  0.57758591  0.87201228    -0.16100
C1019       C  0.42403066  0.57583210  0.87253872    -0.15700
C1020       C  0.42577349  0.51609828  0.87172088    -0.16000
C1021       C  0.33365902  0.33459965  0.70559929     0.46700
H1022       H  0.33367896  0.33468004  0.67718189    -0.02300
C1023       C  0.66684516  0.33451173  0.77226120     0.46800
H1024       H  0.66683024  0.33457128  0.80068046    -0.02300
C1025       C  0.35387560  0.64714216  0.72126845    -0.16000
C1026       C  0.35442854  0.37541482  0.72139377    -0.15700
C1027       C  0.62635512  0.64801258  0.72114247    -0.16100
C1028       C  0.35398106  0.64729834  0.75647957    -0.16100
C1029       C  0.35417825  0.37531453  0.75652229    -0.15700
C1030       C  0.62625003  0.64777290  0.75630155    -0.16000
C1031       C  0.55577725  0.44549455  0.32157923     0.46700
H1032       H  0.55567156  0.44540268  0.29316381    -0.02300
C1033       C  0.55603167  0.44572590  0.38825194     0.46800
H1034       H  0.55613036  0.44582421  0.41670608    -0.02300
C1035       C  0.51491759  0.42576204  0.33760468    -0.16000
C1036       C  0.57557534  0.42438432  0.33745460    -0.15700
C1037       C  0.57702279  0.48650737  0.33738777    -0.16100
C1038       C  0.51555599  0.42620720  0.37266967    -0.16100
C1039       C  0.57545781  0.42472750  0.37252668    -0.15700
C1040       C  0.57689345  0.48613816  0.37245884    -0.16000
C1041       C  0.55610125  0.44577505  0.08956529     0.46700
H1042       H  0.55615589  0.44593522  0.06111162    -0.02300
C1043       C  0.55596975  0.44545247  0.15622333     0.46800
H1044       H  0.55595207  0.44533617  0.18463704    -0.02300
C1045       C  0.51563793  0.42456808  0.10521957    -0.16000
C1046       C  0.57721797  0.42641202  0.10515328    -0.15700
C1047       C  0.57534615  0.48615567  0.10542648    -0.16100
C1048       C  0.51507175  0.42404476  0.14029570    -0.16100
C1049       C  0.57744854  0.42607874  0.14022510    -0.15700
C1050       C  0.57543853  0.48647767  0.14048669    -0.16000
C1051       C  0.33382349  0.33465300  0.20564513     0.46700
H1052       H  0.33386847  0.33469673  0.17722965    -0.02300
C1053       C  0.33361445  0.33450539  0.27225014     0.46800
H1054       H  0.33351956  0.33443155  0.30066691    -0.02300
C1055       C  0.64693992  0.35532900  0.22130576    -0.16000
C1056       C  0.64646842  0.62707118  0.22135381    -0.15700
C1057       C  0.37464882  0.35483771  0.22145337    -0.16100
C1058       C  0.64707488  0.35550927  0.25648277    -0.16100
C1059       C  0.64610424  0.62705099  0.25651989    -0.15700
C1060       C  0.37450967  0.35449175  0.25664575    -0.16000
Zn1061     Zn  0.36083941  0.64131584  0.00553112     1.49700
Zn1062     Zn  0.33404514  0.33393354  0.93876172     1.49400
Zn1063     Zn  0.61371980  0.64096865  0.00494493     1.49100
Zn1064     Zn  0.36057811  0.38823079  0.00471955     1.49500
O1065       O  0.33395238  0.33448788  0.98869294    -1.82900
O1066       O  0.38022429  0.62223683  0.96680740    -0.73500
O1067       O  0.61373319  0.63964453  0.91964769    -0.73300
O1068       O  0.60313504  0.59543369  0.03438409    -0.72800
O1069       O  0.36119387  0.64048049  0.92039308    -0.73500
O1070       O  0.65909487  0.59574083  0.03491348    -0.73100
O1071       O  0.57587304  0.62151509  0.96570701    -0.73700
O1072       O  0.65871869  0.39892856  0.03377693    -0.73100
O1073       O  0.36067672  0.38743879  0.91936310    -0.73800
O1074       O  0.60301305  0.34286255  0.03414973    -0.73200
O1075       O  0.37925104  0.42569738  0.96519330    -0.73700
O1076       O  0.40660648  0.39955629  0.03380902    -0.73600
O1077       O  0.40630002  0.34354885  0.03480424    -0.73400
C1078       C  0.37796605  0.62420017  0.93450834     0.78400
C1079       C  0.58047599  0.62325354  0.93344495     0.78900
C1080       C  0.62397604  0.58137218  0.04403072     0.77900
C1081       C  0.62373364  0.37803648  0.04329164     0.78200
C1082       C  0.37711636  0.42083263  0.93296018     0.79400
C1083       C  0.42072373  0.37879994  0.04360826     0.78400
Zn1084     Zn  0.36053582  0.38829663  0.47289668     1.49700
Zn1085     Zn  0.36039124  0.64123564  0.47223302     1.49400
Zn1086     Zn  0.33389097  0.33420691  0.53895413     1.49100
Zn1087     Zn  0.61368953  0.64140976  0.47280405     1.49500
O1088       O  0.33373842  0.33459804  0.48902690    -1.82900
O1089       O  0.40662061  0.39939722  0.44403321    -0.73500
O1090       O  0.37956418  0.62196683  0.51095240    -0.73300
O1091       O  0.36066091  0.38775078  0.55819455    -0.72800
O1092       O  0.40602453  0.34324174  0.44309837    -0.73500
O1093       O  0.37905718  0.42587532  0.51228021    -0.73100
O1094       O  0.36102982  0.64067233  0.55740579    -0.73700
O1095       O  0.57594479  0.62252721  0.51204936    -0.73100
O1096       O  0.65854228  0.59570624  0.44296289    -0.73800
O1097       O  0.61376679  0.64053904  0.55812184    -0.73200
O1098       O  0.60264072  0.59549596  0.44363405    -0.73700
O1099       O  0.60306829  0.34317955  0.44353359    -0.73600
O1100       O  0.65895529  0.39906316  0.44359444    -0.73400
C1101       C  0.42062707  0.37851561  0.43430830     0.78400
C1102       C  0.37750846  0.62409989  0.54325634     0.78900
C1103       C  0.37697245  0.42109743  0.54451665     0.77900
C1104       C  0.58052889  0.62431644  0.54430405     0.78200
C1105       C  0.62339207  0.58133663  0.43395714     0.79400
C1106       C  0.62392602  0.37826567  0.43420516     0.78400
C1107       C  0.48170201  0.40883054  0.08391179    -0.12000
C1108       C  0.45386191  0.39552393  0.06547830    -0.13600
C1109       C  0.59306425  0.52030577  0.08431320    -0.12000
C1110       C  0.60733832  0.54827306  0.06598556    -0.13600
C1111       C  0.59358540  0.40881178  0.08378397    -0.12000
C1112       C  0.60721242  0.39462747  0.06526405    -0.13600
C1113       C  0.63737375  0.56156409  0.20659946    -0.12100
C1114       C  0.62929690  0.59148854  0.19996586     0.10100
C1115       C  0.60361761  0.58686009  0.17352040    -0.12100
C1116       C  0.58562221  0.55253529  0.15450607    -0.12100
C1117       C  0.59340147  0.52245295  0.16135188     0.10100
C1118       C  0.61918503  0.52713614  0.18773133    -0.12100
H1119       H  0.65757541  0.56475937  0.22656108     0.14100
H1120       H  0.59680780  0.60945183  0.16812829     0.14100
H1121       H  0.56529325  0.54931066  0.13466122     0.14100
H1122       H  0.62579560  0.50444162  0.19329346     0.14100
C1123       C  0.57425185  0.38221813  0.18739762    -0.12100
C1124       C  0.59536454  0.40797828  0.16095900     0.10100
C1125       C  0.63323401  0.41584006  0.15413859    -0.12100
C1126       C  0.64959659  0.39802817  0.17330645    -0.12100
C1127       C  0.62855663  0.37243003  0.19985527     0.10100
C1128       C  0.59051485  0.36420232  0.20640523    -0.12100
H1129       H  0.54493401  0.37553953  0.19294171     0.14100
H1130       H  0.65034645  0.43615104  0.13425088     0.14100
H1131       H  0.67901765  0.40492173  0.16794846     0.14100
H1132       H  0.57349040  0.34401548  0.22640353     0.14100
C1133       C  0.47491476  0.42702556  0.18806612    -0.12100
C1134       C  0.47902631  0.40618891  0.16107865     0.10100
C1135       C  0.44844269  0.36868365  0.15375792    -0.12100
C1136       C  0.41427673  0.35242874  0.17296159    -0.12100
C1137       C  0.41025389  0.37317681  0.20006798     0.10100
C1138       C  0.44063504  0.41088354  0.20710161    -0.12100
H1139       H  0.49796204  0.45608052  0.19400735     0.14100
H1140       H  0.45117628  0.35172461  0.13346170     0.14100
H1141       H  0.39132729  0.32327481  0.16717744     0.14100
H1142       H  0.43790898  0.42777859  0.22746377     0.14100
C1143       C  0.45381459  0.39515550  0.41250014    -0.12000
C1144       C  0.48165158  0.40900117  0.39404983    -0.13600
C1145       C  0.59307832  0.52024423  0.39365573    -0.12000
C1146       C  0.60670264  0.54817922  0.41203940    -0.13600
C1147       C  0.60744136  0.39484224  0.41222031    -0.12000
C1148       C  0.59324562  0.40849270  0.39377354    -0.13600
C1149       C  0.63249533  0.55273519  0.32345255    -0.12100
C1150       C  0.59471668  0.52251344  0.31658928     0.10100
C1151       C  0.57349366  0.52705726  0.29022776    -0.12100
C1152       C  0.58961333  0.56147656  0.27132770    -0.12100
C1153       C  0.62759756  0.59150148  0.27794462     0.10100
C1154       C  0.64868847  0.58701791  0.30443024    -0.12100
H1155       H  0.64968546  0.54962434  0.34328021     0.14100
H1156       H  0.54422870  0.50423930  0.28466793     0.14100
H1157       H  0.57256425  0.56456211  0.25134182     0.14100
H1158       H  0.34463931  0.60970029  0.30989895     0.14100
C1159       C  0.58623837  0.36887453  0.32345901    -0.12100
C1160       C  0.59388637  0.40670771  0.31666669     0.10100
C1161       C  0.61971996  0.42801773  0.29033072    -0.12100
C1162       C  0.63798502  0.41193821  0.27138181    -0.12100
C1163       C  0.62994275  0.37390242  0.27791672     0.10100
C1164       C  0.60428868  0.35271090  0.30437358    -0.12100
H1165       H  0.56590275  0.35162656  0.34327750     0.14100
H1166       H  0.62624181  0.45732628  0.28482317     0.14100
H1167       H  0.65817910  0.42907285  0.25143090     0.14100
H1168       H  0.59786794  0.65670794  0.30983263     0.14100
C1169       C  0.41457932  0.39723053  0.30456786    -0.12100
C1170       C  0.40990611  0.37136517  0.27823631     0.10100
C1171       C  0.43962919  0.36294383  0.27190734    -0.12100
C1172       C  0.47398854  0.38114733  0.29085328    -0.12100
C1173       C  0.47880256  0.40732030  0.31696891     0.10100
C1174       C  0.44881663  0.41523954  0.32363837    -0.12100
H1175       H  0.39213345  0.40428116  0.30975830     0.14100
H1176       H  0.43626166  0.67552970  0.25218290     0.14100
H1177       H  0.49660062  0.37439047  0.28546150     0.14100
H1178       H  0.45210791  0.43580759  0.34329880     0.14100
C1179       C  0.39387580  0.45399698  0.91111579    -0.12000
C1180       C  0.40815724  0.48184795  0.89267355    -0.13600
C1181       C  0.51946081  0.59333752  0.89322581    -0.12000
C1182       C  0.54719856  0.60657736  0.91176416    -0.13600
C1183       C  0.39463566  0.60744146  0.91307910    -0.12000
C1184       C  0.40799339  0.59331904  0.89427270    -0.13600
C1185       C  0.52638094  0.57519292  0.78976747    -0.12100
C1186       C  0.52174524  0.59635000  0.81613789     0.10100
C1187       C  0.55176112  0.63425768  0.82299784    -0.12100
C1188       C  0.58601520  0.65062024  0.80394284    -0.12100
C1189       C  0.59063172  0.62948573  0.77753912     0.10100
C1190       C  0.56074800  0.59143882  0.77089643    -0.12100
H1191       H  0.50370452  0.54583622  0.78423338     0.12500
H1192       H  0.54853832  0.65133126  0.84289860     0.14100
H1193       H  0.60859518  0.68006419  0.80932357     0.14100
H1194       H  0.56396089  0.57436996  0.75098415     0.14100
C1195       C  0.35130293  0.60438860  0.80438810    -0.12100
C1196       C  0.37244044  0.63032407  0.77804716     0.10100
C1197       C  0.41071447  0.63910120  0.77187175    -0.12100
C1198       C  0.42709085  0.62122228  0.79095455    -0.12100
C1199       C  0.40581794  0.59496539  0.81705467     0.10100
C1200       C  0.36777740  0.58670823  0.82363529    -0.12100
H1201       H  0.32172255  0.59711853  0.80949970     0.14100
H1202       H  0.42779836  0.65954796  0.75205035     0.14100
H1203       H  0.45655875  0.62824936  0.78563384     0.14100
H1204       H  0.35059816  0.56611406  0.84332730     0.14100
C1205       C  0.41734694  0.45125579  0.82130927    -0.12100
C1206       C  0.40758557  0.48017220  0.81580247     0.10100
C1207       C  0.37975492  0.47427506  0.79104679    -0.12100
C1208       C  0.36151790  0.43969822  0.77239483    -0.12100
C1209       C  0.37144036  0.41087473  0.77779210     0.10100
C1210       C  0.39925260  0.41676857  0.80254867    -0.12100
H1211       H  0.43913694  0.45549301  0.84002133     0.14100
H1212       H  0.37168178  0.49613498  0.78660331     0.14100
H1213       H  0.67323756  0.43556447  0.75355062     0.14100
H1214       H  0.40751110  0.39501712  0.80682510     0.14100
C1215       C  0.39350193  0.45430190  0.56627758    -0.12000
C1216       C  0.40722397  0.48212046  0.58473992    -0.13600
C1217       C  0.54722037  0.60750542  0.56592242    -0.12000
C1218       C  0.51938706  0.59333510  0.58434906    -0.13600
C1219       C  0.40835816  0.59392220  0.58336748    -0.12000
C1220       C  0.39429792  0.60741011  0.56463332    -0.13600
C1221       C  0.36746574  0.45033726  0.65528913    -0.12100
C1222       C  0.40550792  0.48022486  0.66179286     0.10100
C1223       C  0.42692003  0.47538088  0.68777613    -0.12100
C1224       C  0.41079379  0.44091327  0.70657379    -0.12100
C1225       C  0.37266028  0.41110883  0.70019047     0.10100
C1226       C  0.35126106  0.41597044  0.67421823    -0.12100
H1227       H  0.35018619  0.45372039  0.63571671     0.14100
H1228       H  0.45637599  0.49795983  0.69304125     0.14100
H1229       H  0.42802893  0.43754429  0.72619971     0.14100
H1230       H  0.65505933  0.39351346  0.66910361     0.14100
C1231       C  0.52704409  0.62167000  0.68690393    -0.12100
C1232       C  0.52182474  0.59480942  0.66132594     0.10100
C1233       C  0.55142006  0.58621757  0.65507276    -0.12100
C1234       C  0.58576659  0.60433922  0.67396575    -0.12100
C1235       C  0.59089797  0.63098769  0.69969091     0.10100
C1236       C  0.56150043  0.63995387  0.70569605    -0.12100
H1237       H  0.50471466  0.62891302  0.69194769     0.14100
H1238       H  0.54777145  0.56513651  0.63578499     0.14100
H1239       H  0.60795220  0.59684651  0.66910099     0.14100
H1240       H  0.56510561  0.66085223  0.72516287     0.14100
C1241       C  0.38170437  0.57496795  0.68754089    -0.12100
C1242       C  0.40681807  0.59597954  0.66068483     0.10100
C1243       C  0.41371418  0.63346485  0.65342418    -0.12100
C1244       C  0.39578581  0.64962530  0.67269220    -0.12100
C1245       C  0.37101209  0.62879307  0.69978321     0.10100
C1246       C  0.36356738  0.59103109  0.70666064    -0.12100
H1247       H  0.37568273  0.54588856  0.69339321     0.14100
H1248       H  0.43350013  0.65053222  0.63321920     0.14100
H1249       H  0.40205706  0.67882315  0.66701292     0.14100
H1250       H  0.34390622  0.57406384  0.72698134     0.14100
C1251       C  0.44497307  0.89072210  0.65654517     0.46700
H1252       H  0.44496218  0.89098007  0.68496026    -0.02300
C1253       C  0.44513645  0.89007448  0.58987909     0.46800
H1254       H  0.44521229  0.88978255  0.56142317    -0.02300
C1255       C  0.42539530  0.91185962  0.64026148    -0.16000
C1256       C  0.48589467  0.91017012  0.64069421    -0.15700
C1257       C  0.42362541  0.84964475  0.64093410    -0.16100
C1258       C  0.42580138  0.91130239  0.60517766    -0.16100
C1259       C  0.48546978  0.90956805  0.60564732    -0.15700
C1260       C  0.42396685  0.84981026  0.60588019    -0.16000
C1261       C  0.44485304  0.89052180  0.82114631     0.46700
H1262       H  0.44473290  0.89082063  0.79273184    -0.02300
C1263       C  0.44508614  0.88962413  0.88781118     0.46800
H1264       H  0.44517385  0.88922708  0.91626437    -0.02300
C1265       C  0.48579915  0.91167521  0.83697117    -0.16000
C1266       C  0.42362606  0.90993918  0.83756140    -0.15700
C1267       C  0.42537710  0.84940620  0.83666006    -0.16100
C1268       C  0.48542927  0.91085649  0.87203390    -0.16100
C1269       C  0.42405952  0.90923631  0.87262821    -0.15700
C1270       C  0.42565709  0.84942320  0.87169543    -0.16000
C1271       C  0.33391420  0.66801476  0.70549448     0.46700
H1272       H  0.33394418  0.66809196  0.67707697    -0.02300
C1273       C  0.66703307  0.66796717  0.77214113     0.46800
H1274       H  0.66699509  0.66803192  0.80056115    -0.02300
C1275       C  0.35383056  0.98058501  0.72137585    -0.16000
C1276       C  0.35465419  0.70883713  0.72127908    -0.15700
C1277       C  0.62641067  0.98140386  0.72121271    -0.16100
C1278       C  0.35397374  0.98080436  0.75659043    -0.16100
C1279       C  0.35438950  0.70874975  0.75640520    -0.15700
C1280       C  0.62629239  0.98115518  0.75636944    -0.16000
C1281       C  0.55577256  0.77860952  0.32159426     0.46700
H1282       H  0.55565887  0.77845965  0.29317861    -0.02300
C1283       C  0.55603281  0.77898171  0.38826745     0.46800
H1284       H  0.55613507  0.77914084  0.41672135    -0.02300
C1285       C  0.51491584  0.75883124  0.33762867    -0.16000
C1286       C  0.57566181  0.75762437  0.33752854    -0.15700
C1287       C  0.57695538  0.81965249  0.33733647    -0.16100
C1288       C  0.51555636  0.75934941  0.37269117    -0.16100
C1289       C  0.57554291  0.75803426  0.37260114    -0.15700
C1290       C  0.57680892  0.81936290  0.37240845    -0.16000
C1291       C  0.55602019  0.77896016  0.08945016     0.46700
H1292       H  0.55601236  0.77909536  0.06099594    -0.02300
C1293       C  0.55604431  0.77869588  0.15610391     0.46800
H1294       H  0.55609032  0.77861188  0.18451685    -0.02300
C1295       C  0.51559375  0.75775885  0.10516333    -0.16000
C1296       C  0.57718893  0.75962777  0.10499825    -0.15700
C1297       C  0.57527307  0.81935120  0.10527699    -0.16100
C1298       C  0.51510280  0.75725690  0.14024271    -0.16100
C1299       C  0.57749449  0.75930488  0.14007305    -0.15700
C1300       C  0.57547777  0.81971553  0.14033804    -0.16000
C1301       C  0.33391501  0.66792711  0.20564169     0.46700
H1302       H  0.33398564  0.66796638  0.17722669    -0.02300
C1303       C  0.33364567  0.66779205  0.27223973     0.46800
H1304       H  0.33353795  0.66773499  0.30065602    -0.02300
C1305       C  0.64711393  0.68870061  0.22131171    -0.16000
C1306       C  0.64651235  0.96028483  0.22129551    -0.15700
C1307       C  0.37472617  0.68806988  0.22147797    -0.16100
C1308       C  0.64726398  0.68890900  0.25649587    -0.16100
C1309       C  0.64612758  0.96018018  0.25646307    -0.15700
C1310       C  0.37454675  0.68770903  0.25666702    -0.16000
Zn1311     Zn  0.36075061  0.97461087  0.00563591     1.49700
Zn1312     Zn  0.33402387  0.66715219  0.93863296     1.49400
Zn1313     Zn  0.61367533  0.97441345  0.00496373     1.49100
Zn1314     Zn  0.36056644  0.72146917  0.00459007     1.49500
O1315       O  0.33395898  0.66772607  0.98856320    -1.82900
O1316       O  0.38013185  0.95550991  0.96693565    -0.73500
O1317       O  0.61374048  0.97295145  0.91964727    -0.73300
O1318       O  0.60293469  0.92875922  0.03431650    -0.72800
O1319       O  0.36147003  0.97409475  0.92050624    -0.73500
O1320       O  0.65879449  0.92886258  0.03474509    -0.73100
O1321       O  0.57586613  0.95506948  0.96569554    -0.73700
O1322       O  0.65873329  0.73217705  0.03366682    -0.73100
O1323       O  0.36065272  0.72066740  0.91923039    -0.73800
O1324       O  0.60292676  0.67620743  0.03382448    -0.73200
O1325       O  0.37918708  0.75892136  0.96506369    -0.73700
O1326       O  0.40657529  0.73279465  0.03371435    -0.73600
O1327       O  0.40632419  0.67681114  0.03464185    -0.73400
C1328       C  0.37809085  0.95766946  0.93463626     0.78400
C1329       C  0.58047647  0.95667056  0.93343667     0.78900
C1330       C  0.62368969  0.91456481  0.04387424     0.77900
C1331       C  0.62369378  0.71134192  0.04305161     0.78200
C1332       C  0.37704758  0.75406110  0.93283074     0.79400
C1333       C  0.42070482  0.71204332  0.04350091     0.78400
Zn1334     Zn  0.36069644  0.72170708  0.47305888     1.49700
Zn1335     Zn  0.36035296  0.97445725  0.47215629     1.49400
Zn1336     Zn  0.33409218  0.66760778  0.53913546     1.49100
Zn1337     Zn  0.61365693  0.97476380  0.47274403     1.49500
O1338       O  0.33388460  0.66800643  0.48919810    -1.82900
O1339       O  0.40671706  0.73271631  0.44412872    -0.73500
O1340       O  0.37937828  0.95511235  0.51094249    -0.73300
O1341       O  0.36096901  0.72119278  0.55838118    -0.72800
O1342       O  0.40602580  0.67650999  0.44317392    -0.73500
O1343       O  0.37929900  0.75929560  0.51245022    -0.73100
O1344       O  0.36101104  0.97408557  0.55733261    -0.73700
O1345       O  0.57593554  0.95606251  0.51203558    -0.73100
O1346       O  0.65836591  0.92893111  0.44285416    -0.73800
O1347       O  0.61380977  0.97392768  0.55807090    -0.73200
O1348       O  0.60248646  0.92876907  0.44360244    -0.73700
O1349       O  0.60320119  0.67666231  0.44371467    -0.73600
O1350       O  0.65912854  0.73250512  0.44372807    -0.73400
C1351       C  0.42065849  0.71178532  0.43437381     0.78400
C1352       C  0.37738853  0.95738153  0.54324043     0.78900
C1353       C  0.37726836  0.75453897  0.54469042     0.77900
C1354       C  0.58055549  0.95783011  0.54428886     0.78200
C1355       C  0.62320786  0.91458862  0.43388102     0.79400
C1356       C  0.62408342  0.71173800  0.43437186     0.78400
C1357       C  0.48162580  0.74203273  0.08388608    -0.12000
C1358       C  0.45380424  0.72874837  0.06542556    -0.13600
C1359       C  0.59282926  0.85346722  0.08411830    -0.12000
C1360       C  0.60700366  0.88142191  0.06577531    -0.13600
C1361       C  0.59354128  0.74206765  0.08357555    -0.12000
C1362       C  0.60717090  0.72793059  0.06501095    -0.13600
C1363       C  0.63751430  0.89482437  0.20642445    -0.12100
C1364       C  0.62942230  0.92474851  0.19983182     0.10100
C1365       C  0.60376496  0.92014338  0.17337265    -0.12100
C1366       C  0.58576301  0.88582705  0.15434289    -0.12100
C1367       C  0.59351603  0.85572333  0.16117585     0.10100
C1368       C  0.61932401  0.86040571  0.18753538    -0.12100
H1369       H  0.65771076  0.89800158  0.22638439     0.14100
H1370       H  0.59694697  0.94273298  0.16800047     0.14100
H1371       H  0.56542165  0.88261553  0.13451626     0.14100
H1372       H  0.62593077  0.83770564  0.19308334     0.14100
C1373       C  0.57442836  0.71564494  0.18740662    -0.12100
C1374       C  0.59542736  0.74118470  0.16079585     0.10100
C1375       C  0.63321080  0.74884856  0.15384799    -0.12100
C1376       C  0.64960146  0.73109527  0.17307340    -0.12100
C1377       C  0.62868853  0.70574957  0.19981587     0.10100
C1378       C  0.59071449  0.69768189  0.20646669    -0.12100
H1379       H  0.54517420  0.70909879  0.19305774     0.14100
H1380       H  0.65025920  0.76899245  0.13383732     0.14100
H1381       H  0.67896116  0.73785712  0.16760923     0.14100
H1382       H  0.57375365  0.67765932  0.22658565     0.14100
C1383       C  0.47508354  0.76015106  0.18818468    -0.12100
C1384       C  0.47909723  0.73938242  0.16108340     0.10100
C1385       C  0.44844439  0.70193340  0.15369706    -0.12100
C1386       C  0.41429542  0.68568662  0.17292129    -0.12100
C1387       C  0.41035597  0.70637899  0.20012103     0.10100
C1388       C  0.44082076  0.74401770  0.20724236    -0.12100
H1389       H  0.49818307  0.78916007  0.19418627     0.14100
H1390       H  0.45110313  0.68500896  0.13332657     0.14100
H1391       H  0.39128781  0.65658326  0.16706824     0.14100
H1392       H  0.43816409  0.76088210  0.22767176     0.14100
C1393       C  0.45381906  0.72837258  0.41253149    -0.12000
C1394       C  0.48165123  0.74217399  0.39407440    -0.13600
C1395       C  0.59292119  0.85351209  0.39355164    -0.12000
C1396       C  0.60649208  0.88144490  0.41194021    -0.13600
C1397       C  0.60761231  0.72832034  0.41238366    -0.12000
C1398       C  0.59339449  0.74191280  0.39389888    -0.13600
C1399       C  0.63252843  0.88576530  0.32329432    -0.12100
C1400       C  0.59470750  0.85560532  0.31647634     0.10100
C1401       C  0.57350395  0.86016561  0.29010909    -0.12100
C1402       C  0.58966129  0.89457694  0.27119674    -0.12100
C1403       C  0.62765851  0.92457414  0.27781188     0.10100
C1404       C  0.64876125  0.92003970  0.30425683    -0.12100
H1405       H  0.64969934  0.88262459  0.34312372     0.14100
H1406       H  0.54421690  0.83738066  0.28457317     0.14100
H1407       H  0.57261640  0.89769588  0.25122696     0.14100
H1408       H  0.34485255  0.94262340  0.30960715     0.14100
C1409       C  0.58654191  0.70223971  0.32360664    -0.12100
C1410       C  0.59407031  0.74002269  0.31677591     0.10100
C1411       C  0.61981877  0.76133228  0.29038589    -0.12100
C1412       C  0.63809103  0.74528798  0.27139919    -0.12100
C1413       C  0.63013234  0.70728432  0.27794899     0.10100
C1414       C  0.60459150  0.68610849  0.30448015    -0.12100
H1415       H  0.56627681  0.68499261  0.34346861     0.14100
H1416       H  0.62625223  0.79060751  0.28485114     0.14100
H1417       H  0.65821068  0.76241680  0.25140111     0.14100
H1418       H  0.59725239  0.98967033  0.30966956     0.14100
C1419       C  0.41462875  0.73039625  0.30458278    -0.12100
C1420       C  0.40990494  0.70447715  0.27828985     0.10100
C1421       C  0.43955497  0.69593461  0.27201247    -0.12100
C1422       C  0.47391775  0.71410702  0.29095751    -0.12100
C1423       C  0.47879464  0.74036615  0.31701267     0.10100
C1424       C  0.44886544  0.74837643  0.32364456    -0.12100
H1425       H  0.39223389  0.73752978  0.30973415     0.14100
H1426       H  0.43633672  0.00897841  0.25207904     0.14100
H1427       H  0.49648880  0.70728065  0.28560162     0.14100
H1428       H  0.45220829  0.76900639  0.34326204     0.14100
C1429       C  0.39374933  0.78723852  0.91099796    -0.12000
C1430       C  0.40801619  0.81513102  0.89260132    -0.13600
C1431       C  0.51942786  0.92661480  0.89324467    -0.12000
C1432       C  0.54719205  0.93992894  0.91175787    -0.13600
C1433       C  0.39480800  0.94094081  0.91322687    -0.12000
C1434       C  0.40813802  0.92679133  0.89441917    -0.13600
C1435       C  0.52627225  0.90864876  0.78964935    -0.12100
C1436       C  0.52171108  0.92970905  0.81615318     0.10100
C1437       C  0.55182270  0.96753404  0.82315104    -0.12100
C1438       C  0.58609613  0.98389602  0.80412005    -0.12100
C1439       C  0.59064315  0.96285689  0.77758735     0.10100
C1440       C  0.56065670  0.92489311  0.77079995    -0.12100
H1441       H  0.50352942  0.87935616  0.78400015     0.12500
H1442       H  0.54866404  0.98455335  0.84314310     0.14100
H1443       H  0.60874422  0.01327455  0.80962105     0.14100
H1444       H  0.56380613  0.90787470  0.75080127     0.14100
C1445       C  0.35147850  0.93824817  0.80475688    -0.12100
C1446       C  0.37247379  0.96388226  0.77818928     0.10100
C1447       C  0.41063511  0.97239411  0.77182477    -0.12100
C1448       C  0.42699271  0.95448575  0.79089162    -0.12100
C1449       C  0.40584258  0.92848977  0.81719180     0.10100
C1450       C  0.36794076  0.92054755  0.82399472    -0.12100
H1451       H  0.32199393  0.93119170  0.81003972     0.14100
H1452       H  0.42764446  0.99264330  0.75185597     0.14100
H1453       H  0.45635806  0.96129053  0.78539471     0.14100
H1454       H  0.35083088  0.90014786  0.84383219     0.14100
C1455       C  0.41733035  0.78467713  0.82128608    -0.12100
C1456       C  0.40756382  0.81358343  0.81573186     0.10100
C1457       C  0.37983387  0.80770464  0.79087670    -0.12100
C1458       C  0.36168578  0.77314568  0.77219125    -0.12100
C1459       C  0.37159930  0.74432360  0.77765664     0.10100
C1460       C  0.39932374  0.75021010  0.80249800    -0.12100
H1461       H  0.43905802  0.78890437  0.84006208     0.14100
H1462       H  0.37176285  0.82955830  0.78638567     0.14100
H1463       H  0.67372271  0.76920361  0.75310691     0.14100
H1464       H  0.40757806  0.72846426  0.80682805     0.14100
C1465       C  0.39381083  0.78777479  0.56643220    -0.12000
C1466       C  0.40749379  0.81563957  0.58484915    -0.13600
C1467       C  0.54727424  0.94113062  0.56595229    -0.12000
C1468       C  0.51946677  0.92701545  0.58441657    -0.13600
C1469       C  0.40823897  0.92728761  0.58345379    -0.12000
C1470       C  0.39415559  0.94071799  0.56467949    -0.13600
C1471       C  0.36760898  0.78396669  0.65543325    -0.12100
C1472       C  0.40571297  0.81376720  0.66185445     0.10100
C1473       C  0.42720535  0.80878625  0.68767298    -0.12100
C1474       C  0.41108259  0.77426381  0.70639698    -0.12100
C1475       C  0.37288903  0.74454202  0.70009075     0.10100
C1476       C  0.35141290  0.74954380  0.67428267    -0.12100
H1477       H  0.35028825  0.78745789  0.63597140     0.14100
H1478       H  0.45670859  0.83130159  0.69286558     0.14100
H1479       H  0.42835410  0.77079124  0.72592119     0.14100
H1480       H  0.65519165  0.72711563  0.66914552     0.14100
C1481       C  0.52727605  0.95549423  0.68684091    -0.12100
C1482       C  0.52190794  0.92845823  0.66138560     0.10100
C1483       C  0.55135451  0.91962880  0.65524026    -0.12100
C1484       C  0.58569865  0.93766708  0.67413639    -0.12100
C1485       C  0.59097392  0.96447600  0.69974952     0.10100
C1486       C  0.56173442  0.97369490  0.70564021    -0.12100
H1487       H  0.50505478  0.96291292  0.69179390     0.14100
H1488       H  0.54758466  0.89842602  0.63603366     0.14100
H1489       H  0.60776788  0.92998895  0.66936542     0.14100
H1490       H  0.56545972  0.99470982  0.72503270     0.14100
C1491       C  0.38165631  0.90839918  0.68764850    -0.12100
C1492       C  0.40675578  0.92940820  0.66078076     0.10100
C1493       C  0.41363232  0.96688493  0.65351540    -0.12100
C1494       C  0.39570829  0.98304348  0.67278992    -0.12100
C1495       C  0.37094889  0.96221719  0.69989041     0.10100
C1496       C  0.36351291  0.92445828  0.70677185    -0.12100
H1497       H  0.37565664  0.87932871  0.69350954     0.14100
H1498       H  0.43340574  0.98395048  0.63330220     0.14100
H1499       H  0.40197456  0.01223944  0.66710793     0.14100
H1500       H  0.34387164  0.90750212  0.72710841     0.14100
C1501       C  0.77810138  0.22394555  0.65643529     0.46700
H1502       H  0.77805382  0.22416384  0.68485026    -0.02300
C1503       C  0.77833110  0.22337703  0.58977221     0.46800
H1504       H  0.77843281  0.22312065  0.56131571    -0.02300
C1505       C  0.75854480  0.24510866  0.64016644    -0.16000
C1506       C  0.81904675  0.24340044  0.64062075    -0.15700
C1507       C  0.75676709  0.18288644  0.64077881    -0.16100
C1508       C  0.75900412  0.24460558  0.60508573    -0.16100
C1509       C  0.81864804  0.24280853  0.60556777    -0.15700
C1510       C  0.75713237  0.18309696  0.60572506    -0.16000
C1511       C  0.77820573  0.22390114  0.82131522     0.46700
H1512       H  0.77812187  0.22419109  0.79290077    -0.02300
C1513       C  0.77837415  0.22303122  0.88797610     0.46800
H1514       H  0.77842826  0.22264578  0.91643010    -0.02300
C1515       C  0.81912499  0.24514076  0.83717763    -0.16000
C1516       C  0.75687126  0.24322802  0.83767224    -0.15700
C1517       C  0.75880537  0.18279629  0.83682914    -0.16100
C1518       C  0.81872964  0.24434209  0.87223906    -0.16100
C1519       C  0.75728345  0.24255001  0.87273876    -0.15700
C1520       C  0.75904989  0.18282616  0.87186833    -0.16000
C1521       C  0.66723888  0.00138147  0.70557932     0.46700
H1522       H  0.66723641  0.00140371  0.67716168    -0.02300
C1523       C  0.00038418  0.00136642  0.77223641     0.46800
H1524       H  0.00034221  0.00143755  0.80065566    -0.02300
C1525       C  0.68690412  0.31370556  0.72137204    -0.16000
C1526       C  0.68801677  0.04222635  0.72130545    -0.15700
C1527       C  0.95952793  0.31469591  0.72127670    -0.16100
C1528       C  0.68706799  0.31387556  0.75658911    -0.16100
C1529       C  0.68778291  0.04220374  0.75643846    -0.15700
C1530       C  0.95945102  0.31446179  0.75643750    -0.16000
C1531       C  0.88915997  0.11203229  0.32154087     0.46700
H1532       H  0.88902038  0.11190257  0.29312546    -0.02300
C1533       C  0.88950503  0.11233598  0.38821564     0.46800
H1534       H  0.88964381  0.11246427  0.41666957    -0.02300
C1535       C  0.84831811  0.09228643  0.33761146    -0.16000
C1536       C  0.90899664  0.09096143  0.33741978    -0.15700
C1537       C  0.91041702  0.15306942  0.33731204    -0.16100
C1538       C  0.84900577  0.09276085  0.37267524    -0.16100
C1539       C  0.90893908  0.09135476  0.37248641    -0.15700
C1540       C  0.91033069  0.15273099  0.37238529    -0.16000
C1541       C  0.88938273  0.11234274  0.08955958     0.46700
H1542       H  0.88940845  0.11245965  0.06110563    -0.02300
C1543       C  0.88932765  0.11212106  0.15621393     0.46800
H1544       H  0.88934307  0.11205031  0.18462713    -0.02300
C1545       C  0.84893249  0.09108975  0.10524370    -0.16000
C1546       C  0.91057957  0.09306557  0.10515731    -0.15700
C1547       C  0.90859493  0.15274923  0.10536851    -0.16100
C1548       C  0.84840755  0.09063582  0.14032474    -0.16100
C1549       C  0.91083790  0.09275936  0.14023496    -0.15700
C1550       C  0.90872798  0.15312937  0.14042886    -0.16000
C1551       C  0.66719956  0.00123789  0.20568880     0.46700
H1552       H  0.66727195  0.00132022  0.17727412    -0.02300
C1553       C  0.66693511  0.00099999  0.27229162     0.46800
H1554       H  0.66681243  0.00089299  0.30070843    -0.02300
C1555       C  0.98023293  0.02181793  0.22133353    -0.16000
C1556       C  0.97973296  0.29375217  0.22132504    -0.15700
C1557       C  0.70801472  0.02145189  0.22153302    -0.16100
C1558       C  0.98036781  0.02196592  0.25651244    -0.16100
C1559       C  0.97939579  0.29369157  0.25649623    -0.15700
C1560       C  0.70784415  0.02104497  0.25672517    -0.16000
Zn1561     Zn  0.69418573  0.30812059  0.00562549     1.49700
Zn1562     Zn  0.66736685  0.00055461  0.93869270     1.49400
Zn1563     Zn  0.94712392  0.30774628  0.00509425     1.49100
Zn1564     Zn  0.69397261  0.05480751  0.00473288     1.49500
O1565       O  0.66724173  0.00109247  0.98862901    -1.82900
O1566       O  0.71360949  0.28911639  0.96692767    -0.73500
O1567       O  0.94704699  0.30646097  0.91977791    -0.73300
O1568       O  0.93650570  0.26210635  0.03439963    -0.72800
O1569       O  0.69450901  0.30727088  0.92050287    -0.73500
O1570       O  0.99244650  0.26238457  0.03489481    -0.73100
O1571       O  0.90924999  0.28839450  0.96588112    -0.73700
O1572       O  0.99221545  0.06556322  0.03390232    -0.73100
O1573       O  0.69391744  0.05409973  0.91936566    -0.73800
O1574       O  0.93633187  0.00967450  0.03395482    -0.73200
O1575       O  0.71265801  0.09230347  0.96523977    -0.73700
O1576       O  0.73996457  0.06597494  0.03380452    -0.73600
O1577       O  0.73948131  0.00988087  0.03479407    -0.73400
C1578       C  0.71132841  0.29104677  0.93463368     0.78400
C1579       C  0.91380569  0.29010735  0.93361379     0.78900
C1580       C  0.95731932  0.24799424  0.04399088     0.77900
C1581       C  0.95715141  0.04478163  0.04324528     0.78200
C1582       C  0.71042210  0.08747681  0.93300121     0.79400
C1583       C  0.75398596  0.04513899  0.04361738     0.78400
Zn1584     Zn  0.69410122  0.05498345  0.47288466     1.49700
Zn1585     Zn  0.69371115  0.30792531  0.47212782     1.49400
Zn1586     Zn  0.66741914  0.00094836  0.53899908     1.49100
Zn1587     Zn  0.94692336  0.30792280  0.47267420     1.49500
O1588       O  0.66720696  0.00129707  0.48906478    -1.82900
O1589       O  0.74014590  0.06592956  0.44404209    -0.73500
O1590       O  0.71278097  0.28862414  0.51089178    -0.73300
O1591       O  0.69429347  0.05454527  0.55819134    -0.72800
O1592       O  0.73939199  0.00969412  0.44310982    -0.73500
O1593       O  0.71268885  0.09261282  0.51223789    -0.73100
O1594       O  0.69415432  0.30732019  0.55729153    -0.73700
O1595       O  0.90913426  0.28899894  0.51193104    -0.73100
O1596       O  0.99199657  0.26235686  0.44290841    -0.73800
O1597       O  0.94696179  0.30702265  0.55799815    -0.73200
O1598       O  0.93603813  0.26204064  0.44351870    -0.73700
O1599       O  0.93662326  0.00998959  0.44357353    -0.73600
O1600       O  0.99260379  0.06578121  0.44345824    -0.73400
C1601       C  0.75407625  0.04498024  0.43432125     0.78400
C1602       C  0.71065894  0.29075317  0.54318836     0.78900
C1603       C  0.71061667  0.08787949  0.54448042     0.77900
C1604       C  0.91372119  0.29079616  0.54418998     0.78200
C1605       C  0.95684848  0.24793406  0.43387417     0.79400
C1606       C  0.95753923  0.04503042  0.43414849     0.78400
C1607       C  0.81496826  0.07519994  0.08394481    -0.12000
C1608       C  0.78711675  0.06180619  0.06551200    -0.13600
C1609       C  0.92632825  0.18686797  0.08421091    -0.12000
C1610       C  0.94064418  0.21483710  0.06588269    -0.13600
C1611       C  0.92699840  0.07552933  0.08377001    -0.12000
C1612       C  0.94065277  0.06139817  0.06521768    -0.13600
C1613       C  0.97066418  0.22825908  0.20652420    -0.12100
C1614       C  0.96259380  0.25818831  0.19989320     0.10100
C1615       C  0.93695355  0.25357367  0.17341042    -0.12100
C1616       C  0.91897312  0.21924958  0.15438170    -0.12100
C1617       C  0.92671629  0.18914507  0.16125770     0.10100
C1618       C  0.95248064  0.19383120  0.18765504    -0.12100
H1619       H  0.99084961  0.23144253  0.22649640     0.14100
H1620       H  0.93015280  0.27616906  0.16800513     0.14100
H1621       H  0.89866918  0.21603603  0.13451647     0.14100
H1622       H  0.95907762  0.17113206  0.19323768     0.14100
C1623       C  0.90767156  0.04900301  0.18752752    -0.12100
C1624       C  0.92873895  0.07463159  0.16099027     0.10100
C1625       C  0.96653307  0.08230579  0.15408544    -0.12100
C1626       C  0.98285245  0.06443965  0.17324766    -0.12100
C1627       C  0.96185976  0.03896749  0.19988926     0.10100
C1628       C  0.92389032  0.03093040  0.20653002    -0.12100
H1629       H  0.87840992  0.04245450  0.19314838     0.14100
H1630       H  0.98363313  0.10252046  0.13413602     0.14100
H1631       H  0.01221773  0.07120381  0.16780965     0.14100
H1632       H  0.90687743  0.01083685  0.22658832     0.14100
C1633       C  0.80835652  0.09356582  0.18822907    -0.12100
C1634       C  0.81238719  0.07277768  0.16115008     0.10100
C1635       C  0.78174409  0.03531970  0.15378173    -0.12100
C1636       C  0.74758969  0.01908492  0.17299273    -0.12100
C1637       C  0.74363617  0.03978940  0.20017198     0.10100
C1638       C  0.77408938  0.07743665  0.20728349    -0.12100
H1639       H  0.83144992  0.12258096  0.19422149     0.14100
H1640       H  0.78441632  0.01837193  0.13344174     0.14100
H1641       H  0.72459309  0.98997132  0.16715458     0.14100
H1642       H  0.77142384  0.09430305  0.22770653     0.14100
C1643       C  0.78727712  0.06157605  0.41252586    -0.12000
C1644       C  0.81512170  0.07547463  0.39408262    -0.13600
C1645       C  0.92658130  0.18685095  0.39356420    -0.12000
C1646       C  0.94022222  0.21478148  0.41195220    -0.13600
C1647       C  0.94106460  0.06160148  0.41215272    -0.12000
C1648       C  0.92681104  0.07519668  0.39371442    -0.13600
C1649       C  0.96589223  0.21930263  0.32333542    -0.12100
C1650       C  0.92811069  0.18906876  0.31648834     0.10100
C1651       C  0.90686939  0.19361566  0.29014498    -0.12100
C1652       C  0.92295743  0.22805582  0.27127071    -0.12100
C1653       C  0.96093297  0.25810486  0.27788841     0.10100
C1654       C  0.98205404  0.25360681  0.30433840    -0.12100
H1655       H  0.98310362  0.21619285  0.34314273     0.14100
H1656       H  0.87760664  0.17079068  0.28459029     0.14100
H1657       H  0.90588576  0.23114252  0.25130746     0.14100
H1658       H  0.67798663  0.27623536  0.30964093     0.14100
C1659       C  0.91947542  0.03535814  0.32339365    -0.12100
C1660       C  0.92727360  0.07325049  0.31665283     0.10100
C1661       C  0.95324628  0.09459446  0.29041751    -0.12100
C1662       C  0.97148644  0.07847629  0.27149429    -0.12100
C1663       C  0.96327565  0.04037568  0.27795535     0.10100
C1664       C  0.93749671  0.01915219  0.30432649    -0.12100
H1665       H  0.89905496  0.01810975  0.34316106     0.14100
H1666       H  0.95988563  0.12395122  0.28496752     0.14100
H1667       H  0.99177844  0.09562187  0.25160674     0.14100
H1668       H  0.93082404  0.32324431  0.30980066     0.14100
C1669       C  0.74792838  0.06371970  0.30467811    -0.12100
C1670       C  0.74322056  0.03784472  0.27834476     0.10100
C1671       C  0.77290984  0.02937124  0.27201954    -0.12100
C1672       C  0.80729164  0.04757248  0.29093945    -0.12100
C1673       C  0.81216117  0.07379553  0.31702665     0.10100
C1674       C  0.78218726  0.08172690  0.32372155    -0.12100
H1675       H  0.72550286  0.07079712  0.30987632     0.14100
H1676       H  0.76964210  0.34248299  0.25205821     0.14100
H1677       H  0.82988594  0.04079322  0.28553732     0.14100
H1678       H  0.78551195  0.10231687  0.34337276     0.14100
C1679       C  0.72714590  0.12067184  0.91119575    -0.12000
C1680       C  0.74141854  0.14855305  0.89278985    -0.13600
C1681       C  0.85271196  0.26011624  0.89347442    -0.12000
C1682       C  0.88048437  0.27340875  0.91197832    -0.13600
C1683       C  0.72801159  0.27428850  0.91324122    -0.12000
C1684       C  0.74134184  0.26010822  0.89448167    -0.13600
C1685       C  0.85950403  0.24205281  0.78984056    -0.12100
C1686       C  0.85502582  0.26313612  0.81636962     0.10100
C1687       C  0.88517455  0.30094238  0.82335808    -0.12100
C1688       C  0.91940149  0.31727010  0.80426972    -0.12100
C1689       C  0.92385226  0.29620991  0.77769836     0.10100
C1690       C  0.89383996  0.25825859  0.77093991    -0.12100
H1691       H  0.83672879  0.21277060  0.78420440     0.12500
H1692       H  0.88207482  0.31797730  0.84337039     0.14100
H1693       H  0.94208506  0.34663879  0.80975337     0.14100
H1694       H  0.89692825  0.24122351  0.75092034     0.14100
C1695       C  0.68470461  0.27153446  0.80489373    -0.12100
C1696       C  0.70558072  0.29693605  0.77815177     0.10100
C1697       C  0.74366240  0.30527564  0.77164736    -0.12100
C1698       C  0.76005075  0.28742900  0.79075387    -0.12100
C1699       C  0.73902759  0.26168244  0.81724508     0.10100
C1700       C  0.70119892  0.25389643  0.82417047    -0.12100
H1701       H  0.65528408  0.26461378  0.81029673     0.14100
H1702       H  0.76060299  0.32537006  0.75156134     0.14100
H1703       H  0.78935766  0.29411546  0.78515014     0.14100
H1704       H  0.68416141  0.23366445  0.84413598     0.14100
C1705       C  0.75053232  0.11792831  0.82156666    -0.12100
C1706       C  0.74101511  0.14699085  0.81586974     0.10100
C1707       C  0.71357553  0.14131989  0.79078401    -0.12100
C1708       C  0.69542353  0.10679955  0.77204853    -0.12100
C1709       C  0.70506493  0.07780616  0.77767024     0.10100
C1710       C  0.73253136  0.08350166  0.80271847    -0.12100
H1711       H  0.77206396  0.12199833  0.84049562     0.14100
H1712       H  0.70570578  0.16329871  0.78616148     0.14100
H1713       H  0.00695034  0.10260545  0.75323314     0.14100
H1714       H  0.74058282  0.06162779  0.80717960     0.14100
C1715       C  0.72711996  0.12112359  0.56620781    -0.12000
C1716       C  0.74073630  0.14896417  0.58465052    -0.13600
C1717       C  0.88042787  0.27407841  0.56584002    -0.12000
C1718       C  0.85264329  0.26009480  0.58433272    -0.13600
C1719       C  0.74147705  0.26062579  0.58337495    -0.12000
C1720       C  0.72741478  0.27408049  0.56461303    -0.13600
C1721       C  0.70089760  0.11708423  0.65520156    -0.12100
C1722       C  0.73893633  0.14699383  0.66167189     0.10100
C1723       C  0.76044221  0.14214157  0.68755825    -0.12100
C1724       C  0.74438378  0.10766357  0.70633690    -0.12100
C1725       C  0.70622842  0.07786403  0.70003083     0.10100
C1726       C  0.68475934  0.08271003  0.67411469    -0.12100
H1727       H  0.68356601  0.12046629  0.63568035     0.14100
H1728       H  0.78990432  0.16473559  0.69277879     0.14100
H1729       H  0.76166438  0.10430112  0.72592180     0.14100
H1730       H  0.98852350  0.06014807  0.66890794     0.14100
C1731       C  0.86028360  0.28855378  0.68693627    -0.12100
C1732       C  0.85503845  0.26167641  0.66136142     0.10100
C1733       C  0.88458073  0.25299591  0.65516490    -0.12100
C1734       C  0.91890015  0.27104795  0.67410078    -0.12100
C1735       C  0.92406750  0.29771968  0.69981575     0.10100
C1736       C  0.89471810  0.30676978  0.70577621    -0.12100
H1737       H  0.83798718  0.29585562  0.69194624     0.14100
H1738       H  0.88090976  0.23189738  0.63589121     0.14100
H1739       H  0.94104364  0.26348519  0.66927092     0.14100
H1740       H  0.89834363  0.32767467  0.72523946     0.14100
C1741       C  0.71467504  0.24152868  0.68749684    -0.12100
C1742       C  0.73984345  0.26260268  0.66068650     0.10100
C1743       C  0.74672800  0.30009382  0.65347454    -0.12100
C1744       C  0.72877628  0.31621692  0.67276063    -0.12100
C1745       C  0.70397868  0.29534039  0.69982369     0.10100
C1746       C  0.69650400  0.25755408  0.70663314    -0.12100
H1747       H  0.70865993  0.21244521  0.69331224     0.14100
H1748       H  0.76654201  0.31720556  0.63330053     0.14100
H1749       H  0.73506706  0.34542946  0.66713069     0.14100
H1750       H  0.67683554  0.24056356  0.72694353     0.14100
C1751       C  0.77817458  0.55716788  0.65647676     0.46700
H1752       H  0.77815049  0.55741444  0.68489152    -0.02300
C1753       C  0.77836058  0.55656449  0.58981280     0.46800
H1754       H  0.77844934  0.55629527  0.56135655    -0.02300
C1755       C  0.75865850  0.57836693  0.64020253    -0.16000
C1756       C  0.81910192  0.57656601  0.64064117    -0.15700
C1757       C  0.75677768  0.51610112  0.64084832    -0.16100
C1758       C  0.75908144  0.57783975  0.60512106    -0.16100
C1759       C  0.81868259  0.57597799  0.60559490    -0.15700
C1760       C  0.75712999  0.51629456  0.60579153    -0.16000
C1761       C  0.77817498  0.55714877  0.82113767     0.46700
H1762       H  0.77803411  0.55740007  0.79272242    -0.02300
C1763       C  0.77843751  0.55637806  0.88780270     0.46800
H1764       H  0.77853590  0.55603522  0.91625690    -0.02300
C1765       C  0.81912270  0.57843801  0.83694623    -0.16000
C1766       C  0.75685094  0.57647734  0.83750485    -0.15700
C1767       C  0.75881171  0.51606801  0.83671413    -0.16100
C1768       C  0.81876767  0.57769007  0.87201039    -0.16100
C1769       C  0.75727658  0.57582708  0.87256837    -0.15700
C1770       C  0.75912921  0.51615287  0.87174890    -0.16000
C1771       C  0.66697259  0.33462305  0.70563609     0.46700
H1772       H  0.66697363  0.33469397  0.67721873    -0.02300
C1773       C  0.00025287  0.33462514  0.77225567     0.46800
H1774       H  0.00024315  0.33471422  0.80067520    -0.02300
C1775       C  0.68713125  0.64712614  0.72130200    -0.16000
C1776       C  0.68776032  0.37544540  0.72141990    -0.15700
C1777       C  0.95967669  0.64800582  0.72111675    -0.16100
C1778       C  0.68724413  0.64730896  0.75651193    -0.16100
C1779       C  0.68753267  0.37535701  0.75654906    -0.15700
C1780       C  0.95955138  0.64773475  0.75627758    -0.16000
C1781       C  0.88907538  0.44540540  0.32157545     0.46700
H1782       H  0.88896497  0.44525422  0.29316008    -0.02300
C1783       C  0.88935480  0.44577805  0.38824775     0.46800
H1784       H  0.88946075  0.44593392  0.41670151    -0.02300
C1785       C  0.84821738  0.42568687  0.33760607    -0.16000
C1786       C  0.90889880  0.42435059  0.33751168    -0.15700
C1787       C  0.91031306  0.48645135  0.33731628    -0.16100
C1788       C  0.84887455  0.42620571  0.37267146    -0.16100
C1789       C  0.90878987  0.42475905  0.37258129    -0.15700
C1790       C  0.91019248  0.48616115  0.37238978    -0.16000
C1791       C  0.88936999  0.44564612  0.08953933     0.46700
H1792       H  0.88942431  0.44577051  0.06108514    -0.02300
C1793       C  0.88923886  0.44540707  0.15619738     0.46800
H1794       H  0.88922515  0.44533359  0.18461109    -0.02300
C1795       C  0.84891076  0.42446986  0.10519636    -0.16000
C1796       C  0.91049255  0.42631072  0.10517001    -0.15700
C1797       C  0.90861304  0.48604212  0.10535332    -0.16100
C1798       C  0.84834141  0.42398226  0.14027151    -0.16100
C1799       C  0.91071386  0.42600819  0.14024451    -0.15700
C1800       C  0.90871335  0.48641086  0.14041090    -0.16000
C1801       C  0.66711120  0.33464488  0.20561843     0.46700
H1802       H  0.66716538  0.33468598  0.17720287    -0.02300
C1803       C  0.66688326  0.33450996  0.27222126     0.46800
H1804       H  0.66678320  0.33444453  0.30063750    -0.02300
C1805       C  0.98023563  0.35530932  0.22139027    -0.16000
C1806       C  0.97980073  0.62701781  0.22122488    -0.15700
C1807       C  0.70793116  0.35478481  0.22143840    -0.16100
C1808       C  0.98039950  0.35547976  0.25656743    -0.16100
C1809       C  0.97939608  0.62694737  0.25638989    -0.15700
C1810       C  0.70778598  0.35444124  0.25663088    -0.16000
Zn1811     Zn  0.69413425  0.64133364  0.00558580     1.49700
Zn1812     Zn  0.66734138  0.33394842  0.93873613     1.49400
Zn1813     Zn  0.94699656  0.64088182  0.00492306     1.49100
Zn1814     Zn  0.69389211  0.38825928  0.00470774     1.49500
O1815       O  0.66729199  0.33452141  0.98867015    -1.82900
O1816       O  0.71343777  0.62215425  0.96687592    -0.73500
O1817       O  0.94705527  0.63972236  0.91962389    -0.73300
O1818       O  0.93637431  0.59528129  0.03427873    -0.72800
O1819       O  0.69456124  0.64054626  0.92045667    -0.73500
O1820       O  0.99237296  0.59567004  0.03489729    -0.73100
O1821       O  0.90917890  0.62151709  0.96567401    -0.73700
O1822       O  0.99214366  0.39897532  0.03380434    -0.73100
O1823       O  0.69406328  0.38747167  0.91935146    -0.73800
O1824       O  0.93639789  0.34294364  0.03410831    -0.73200
O1825       O  0.71261477  0.42571909  0.96519090    -0.73700
O1826       O  0.73988240  0.39956127  0.03382772    -0.73600
O1827       O  0.73966625  0.34359528  0.03469723    -0.73400
C1828       C  0.71124511  0.62418186  0.93457617     0.78400
C1829       C  0.91379305  0.62331825  0.93341357     0.78900
C1830       C  0.95722901  0.58124602  0.04395107     0.77900
C1831       C  0.95714396  0.37809821  0.04329014     0.78200
C1832       C  0.71050968  0.42086273  0.93295814     0.79400
C1833       C  0.75403606  0.37881786  0.04356844     0.78400
Zn1834     Zn  0.69387157  0.38830824  0.47287500     1.49700
Zn1835     Zn  0.69377129  0.64127737  0.47223333     1.49400
Zn1836     Zn  0.66726657  0.33424379  0.53895512     1.49100
Zn1837     Zn  0.94696727  0.64140800  0.47283433     1.49500
O1838       O  0.66709933  0.33461908  0.48902852    -1.82900
O1839       O  0.73992805  0.39937262  0.44399837    -0.73500
O1840       O  0.71287202  0.62198528  0.51098604    -0.73300
O1841       O  0.69414910  0.38780097  0.55817401    -0.72800
O1842       O  0.73943048  0.34326146  0.44318450    -0.73500
O1843       O  0.71244627  0.42591002  0.51224992    -0.73100
O1844       O  0.69433999  0.64073931  0.55741012    -0.73700
O1845       O  0.90924466  0.62253601  0.51209493    -0.73100
O1846       O  0.99180553  0.59572686  0.44291214    -0.73800
O1847       O  0.94707876  0.64046286  0.55815992    -0.73200
O1848       O  0.93590536  0.59551729  0.44360810    -0.73700
O1849       O  0.93638559  0.34314663  0.44355158    -0.73600
O1850       O  0.99225733  0.39904769  0.44363323    -0.73400
C1851       C  0.75398402  0.37851334  0.43433829     0.78400
C1852       C  0.71080179  0.62413619  0.54328631     0.78900
C1853       C  0.71043209  0.42114389  0.54448817     0.77900
C1854       C  0.91383719  0.62428635  0.54434823     0.78200
C1855       C  0.95665913  0.58137294  0.43389515     0.79400
C1856       C  0.95722778  0.37824634  0.43424784     0.78400
C1857       C  0.81498378  0.40877792  0.08388946    -0.12000
C1858       C  0.78715549  0.39551789  0.06544967    -0.13600
C1859       C  0.92631797  0.52016160  0.08420562    -0.12000
C1860       C  0.94058437  0.54812378  0.06587440    -0.13600
C1861       C  0.92694017  0.40877746  0.08382183    -0.12000
C1862       C  0.94062498  0.39466747  0.06528512    -0.13600
C1863       C  0.97076757  0.56155699  0.20641607    -0.12100
C1864       C  0.96266660  0.59146721  0.19980218     0.10100
C1865       C  0.93697164  0.58683575  0.17336965    -0.12100
C1866       C  0.91895232  0.55249943  0.15437253    -0.12100
C1867       C  0.92672416  0.52241404  0.16122822     0.10100
C1868       C  0.95255395  0.52711891  0.18756906    -0.12100
H1869       H  0.99098945  0.56476235  0.22636155     0.14100
H1870       H  0.93015457  0.60942442  0.16798729     0.14100
H1871       H  0.89860168  0.54926204  0.13454430     0.14100
H1872       H  0.95916833  0.50442595  0.19312578     0.14100
C1873       C  0.90755203  0.38224371  0.18750647    -0.12100
C1874       C  0.92864137  0.40794549  0.16102221     0.10100
C1875       C  0.96650223  0.41578571  0.15419890    -0.12100
C1876       C  0.98286756  0.39798920  0.17338392    -0.12100
C1877       C  0.96184578  0.37242779  0.19996032     0.10100
C1878       C  0.92382133  0.36424523  0.20653715    -0.12100
H1879       H  0.87824392  0.37558819  0.19306296     0.14100
H1880       H  0.98360703  0.43606432  0.13428933     0.14100
H1881       H  0.01227830  0.40486071  0.16800915     0.14100
H1882       H  0.90680859  0.34409398  0.22656117     0.14100
C1883       C  0.80819646  0.42696327  0.18805443    -0.12100
C1884       C  0.81229392  0.40613577  0.16105126     0.10100
C1885       C  0.78170047  0.36863813  0.15372062    -0.12100
C1886       C  0.74754131  0.35238067  0.17293209    -0.12100
C1887       C  0.74353686  0.37311691  0.20005806     0.10100
C1888       C  0.77392461  0.41081696  0.20710010    -0.12100
H1889       H  0.83124940  0.45601291  0.19400263     0.14100
H1890       H  0.78442236  0.35168404  0.13341320     0.14100
H1891       H  0.72458319  0.32323391  0.16713828     0.14100
H1892       H  0.77120827  0.42770558  0.22747383     0.14100
C1893       C  0.78716462  0.39515319  0.41252848    -0.12000
C1894       C  0.81498608  0.40900404  0.39406386    -0.13600
C1895       C  0.92636930  0.52031357  0.39353805    -0.12000
C1896       C  0.93997821  0.54824767  0.41192880    -0.13600
C1897       C  0.94073048  0.39484331  0.41229853    -0.12000
C1898       C  0.92655339  0.40852522  0.39386423    -0.13600
C1899       C  0.96580706  0.55262687  0.32330229    -0.12100
C1900       C  0.92802470  0.52240814  0.31645428     0.10100
C1901       C  0.90681525  0.52691728  0.29005852    -0.12100
C1902       C  0.92293621  0.56132487  0.27113984    -0.12100
C1903       C  0.96090696  0.59136902  0.27777555     0.10100
C1904       C  0.98200070  0.58689485  0.30426290    -0.12100
H1905       H  0.98299077  0.54953368  0.34314720     0.14100
H1906       H  0.87755318  0.50409247  0.28450008     0.14100
H1907       H  0.90589065  0.56439623  0.25114206     0.14100
H1908       H  0.67807639  0.60967274  0.30981264     0.14100
C1909       C  0.91958835  0.36884651  0.32356704    -0.12100
C1910       C  0.92724564  0.40668190  0.31677085     0.10100
C1911       C  0.95311137  0.42800452  0.29046055    -0.12100
C1912       C  0.97137239  0.41192280  0.27151496    -0.12100
C1913       C  0.96329456  0.37387360  0.27802800     0.10100
C1914       C  0.93763561  0.35267864  0.30448174    -0.12100
H1915       H  0.89923879  0.35159782  0.34337720     0.14100
H1916       H  0.95964701  0.45731903  0.28496028     0.14100
H1917       H  0.99157946  0.42906012  0.25157318     0.14100
H1918       H  0.93114818  0.65663621  0.30976310     0.14100
C1919       C  0.74787091  0.39715983  0.30456469    -0.12100
C1920       C  0.74318215  0.37128853  0.27823310     0.10100
C1921       C  0.77289356  0.36284460  0.27191456    -0.12100
C1922       C  0.80725378  0.38103276  0.29086825    -0.12100
C1923       C  0.81208583  0.40721999  0.31697899     0.10100
C1924       C  0.78210832  0.41515565  0.32363896    -0.12100
H1925       H  0.72543917  0.40423183  0.30974932     0.14100
H1926       H  0.76958308  0.67548145  0.25223201     0.14100
H1927       H  0.82985615  0.37426096  0.28547988     0.14100
H1928       H  0.78540933  0.43573530  0.34329117     0.14100
C1929       C  0.72729323  0.45403881  0.91112925    -0.12000
C1930       C  0.74156206  0.48190562  0.89270597    -0.13600
C1931       C  0.85276662  0.59344744  0.89321215    -0.12000
C1932       C  0.88051824  0.60668323  0.91173243    -0.13600
C1933       C  0.72788519  0.60740224  0.91314314    -0.12000
C1934       C  0.74122421  0.59328595  0.89431217    -0.13600
C1935       C  0.85952620  0.57533276  0.78960810    -0.12100
C1936       C  0.85501846  0.59643096  0.81610997     0.10100
C1937       C  0.88516621  0.63424319  0.82308643    -0.12100
C1938       C  0.91942188  0.65055231  0.80403653    -0.12100
C1939       C  0.92391591  0.62947340  0.77750838     0.10100
C1940       C  0.89389600  0.59152199  0.77074370    -0.12100
H1941       H  0.83675460  0.54604848  0.78397474     0.12500
H1942       H  0.88205032  0.65129382  0.84307365     0.14100
H1943       H  0.94209901  0.67992408  0.80951892     0.14100
H1944       H  0.89700432  0.57447580  0.75074677     0.14100
C1945       C  0.68448968  0.60430165  0.80436775    -0.12100
C1946       C  0.70567145  0.63031291  0.77808533     0.10100
C1947       C  0.74396946  0.63914934  0.77196234    -0.12100
C1948       C  0.76034108  0.62127077  0.79104754    -0.12100
C1949       C  0.73903365  0.59494535  0.81709263     0.10100
C1950       C  0.70096042  0.58661765  0.82361937    -0.12100
H1951       H  0.65488654  0.59698547  0.80943211     0.14100
H1952       H  0.76107654  0.65964521  0.75217975     0.14100
H1953       H  0.78983301  0.62834949  0.78577082     0.14100
H1954       H  0.68376171  0.56597501  0.84327417     0.14100
C1955       C  0.75065557  0.45128319  0.82136726    -0.12100
C1956       C  0.74091476  0.48021119  0.81583854     0.10100
C1957       C  0.71310777  0.47432407  0.79106164    -0.12100
C1958       C  0.69488244  0.43975201  0.77240309    -0.12100
C1959       C  0.70479094  0.41092074  0.77781650     0.10100
C1960       C  0.73256946  0.41679882  0.80260307    -0.12100
H1961       H  0.77242730  0.45551022  0.84009511     0.14100
H1962       H  0.70504540  0.49618952  0.78660393     0.14100
H1963       H  0.00693543  0.43582570  0.75332628     0.14100
H1964       H  0.74081188  0.39503853  0.80689848     0.14100
C1965       C  0.72697676  0.45435485  0.56624606    -0.12000
C1966       C  0.74065138  0.48216292  0.58472292    -0.13600
C1967       C  0.88053033  0.60751099  0.56596862    -0.12000
C1968       C  0.85268425  0.59338766  0.58438055    -0.13600
C1969       C  0.74158895  0.59391043  0.58341498    -0.12000
C1970       C  0.72754984  0.60742340  0.56468519    -0.13600
C1971       C  0.70081185  0.45034420  0.65527934    -0.12100
C1972       C  0.73885542  0.48022946  0.66178021     0.10100
C1973       C  0.76026628  0.47538930  0.68776651    -0.12100
C1974       C  0.74413300  0.44093067  0.70657784    -0.12100
C1975       C  0.70599373  0.41113205  0.70020533     0.10100
C1976       C  0.68459810  0.41598796  0.67422523    -0.12100
H1977       H  0.68353634  0.45372512  0.63570136     0.14100
H1978       H  0.78972330  0.49796778  0.69302868     0.14100
H1979       H  0.76136636  0.43756525  0.72620767     0.14100
H1980       H  0.98843738  0.39355927  0.66908753     0.14100
C1981       C  0.86039458  0.62178562  0.68688049    -0.12100
C1982       C  0.85511818  0.59486906  0.66133904     0.10100
C1983       C  0.88468085  0.58622924  0.65508759    -0.12100
C1984       C  0.91904736  0.60434855  0.67395184    -0.12100
C1985       C  0.92423164  0.63104100  0.69964974     0.10100
C1986       C  0.89487434  0.64007022  0.70564344    -0.12100
H1987       H  0.83809067  0.62906672  0.69191971     0.14100
H1988       H  0.88098998  0.56511165  0.63582327     0.14100
H1989       H  0.94120241  0.59681039  0.66909482     0.14100
H1990       H  0.89852058  0.66099911  0.72509348     0.14100
C1991       C  0.71491614  0.57491544  0.68757605    -0.12100
C1992       C  0.74004275  0.59593134  0.66072707     0.10100
C1993       C  0.74696179  0.63342624  0.65347976    -0.12100
C1994       C  0.72904320  0.64959297  0.67274816    -0.12100
C1995       C  0.70425803  0.62876049  0.69983061     0.10100
C1996       C  0.69679210  0.59098981  0.70670300    -0.12100
H1997       H  0.70888002  0.54582878  0.69341897     0.14100
H1998       H  0.76675987  0.65049736  0.63328328     0.14100
H1999       H  0.73533164  0.67879774  0.66707547     0.14100
H2000       H  0.67712262  0.57402479  0.72701953     0.14100
C2001       C  0.77833896  0.89068759  0.65647580     0.46700
H2002       H  0.77831286  0.89092060  0.68489088    -0.02300
C2003       C  0.77854765  0.89010103  0.58981046     0.46800
H2004       H  0.77864199  0.88983316  0.56135428    -0.02300
C2005       C  0.75876926  0.91183896  0.64020001    -0.16000
C2006       C  0.81926888  0.91014875  0.64064602    -0.15700
C2007       C  0.75700454  0.84962409  0.64083907    -0.16100
C2008       C  0.75920099  0.91131299  0.60511447    -0.16100
C2009       C  0.81887059  0.90958107  0.60559977    -0.15700
C2010       C  0.75736150  0.84982408  0.60578569    -0.16000
C2011       C  0.77825509  0.89054291  0.82119969     0.46700
H2012       H  0.77815730  0.89085127  0.79278515    -0.02300
C2013       C  0.77843974  0.88964124  0.88786430     0.46800
H2014       H  0.77850298  0.88924050  0.91631752    -0.02300
C2015       C  0.81918298  0.91169922  0.83704879    -0.16000
C2016       C  0.75700504  0.90994103  0.83759133    -0.15700
C2017       C  0.75878410  0.84942836  0.83670362    -0.16100
C2018       C  0.81879630  0.91088784  0.87211211    -0.16100
C2019       C  0.75740917  0.90923884  0.87265634    -0.15700
C2020       C  0.75903769  0.84944114  0.87174069    -0.16000
C2021       C  0.66719450  0.66801238  0.70550927     0.46700
H2022       H  0.66720868  0.66805541  0.67709166    -0.02300
C2023       C  0.00033462  0.66794906  0.77212910     0.46800
H2024       H  0.00029174  0.66800183  0.80054879    -0.02300
C2025       C  0.68718723  0.98051048  0.72137478    -0.16000
C2026       C  0.68797616  0.70885254  0.72125686    -0.15700
C2027       C  0.95971996  0.98135561  0.72123629    -0.16100
C2028       C  0.68733044  0.98072969  0.75658901    -0.16100
C2029       C  0.68773144  0.70880265  0.75638646    -0.15700
C2030       C  0.95959765  0.98108696  0.75639241    -0.16000
C2031       C  0.88916821  0.77862859  0.32155551     0.46700
H2032       H  0.88904205  0.77848129  0.29313987    -0.02300
C2033       C  0.88944685  0.77899470  0.38822874     0.46800
H2034       H  0.88955853  0.77915031  0.41668268    -0.02300
C2035       C  0.84831826  0.75885621  0.33760216    -0.16000
C2036       C  0.90904968  0.75762788  0.33747415    -0.15700
C2037       C  0.91036201  0.81967058  0.33730276    -0.16100
C2038       C  0.84896484  0.75937302  0.37266470    -0.16100
C2039       C  0.90893743  0.75803676  0.37254700    -0.15700
C2040       C  0.91023213  0.81937705  0.37237413    -0.16000
C2041       C  0.88940874  0.77897564  0.08945560     0.46700
H2042       H  0.88942180  0.77912902  0.06100159    -0.02300
C2043       C  0.88938979  0.77867314  0.15611171     0.46800
H2044       H  0.88942148  0.77857136  0.18452488    -0.02300
C2045       C  0.84897020  0.75779837  0.10514785    -0.16000
C2046       C  0.91052452  0.75959267  0.10500726    -0.15700
C2047       C  0.90868998  0.81935770  0.10530657    -0.16100
C2048       C  0.84845909  0.75727724  0.14022817    -0.16100
C2049       C  0.91081974  0.75926499  0.14007917    -0.15700
C2050       C  0.90885725  0.81969770  0.14036563    -0.16000
C2051       C  0.66727557  0.66798078  0.20565966     0.46700
H2052       H  0.66732306  0.66798227  0.17724491    -0.02300
C2053       C  0.66705319  0.66790316  0.27225853     0.46800
H2054       H  0.66696477  0.66786592  0.30067504    -0.02300
C2055       C  0.98045065  0.68864367  0.22123709    -0.16000
C2056       C  0.97978937  0.96028109  0.22127931    -0.15700
C2057       C  0.70809987  0.68811373  0.22147879    -0.16100
C2058       C  0.98055788  0.68881130  0.25641966    -0.16100
C2059       C  0.97941131  0.96020217  0.25644488    -0.15700
C2060       C  0.70794019  0.68777611  0.25666780    -0.16000
Zn2061     Zn  0.69398405  0.97454406  0.00560087     1.49700
Zn2062     Zn  0.66735102  0.66717322  0.93866028     1.49400
Zn2063     Zn  0.94707434  0.97440197  0.00503878     1.49100
Zn2064     Zn  0.69390133  0.72149552  0.00461654     1.49500
O2065       O  0.66727333  0.66775412  0.98858941    -1.82900
O2066       O  0.71339864  0.95548785  0.96689672    -0.73500
O2067       O  0.94711703  0.97301812  0.91971770    -0.73300
O2068       O  0.93639805  0.92879110  0.03442134    -0.72800
O2069       O  0.69472204  0.97405409  0.92046345    -0.73500
O2070       O  0.99227596  0.92892914  0.03483771    -0.73100
O2071       O  0.90925608  0.95500215  0.96577745    -0.73700
O2072       O  0.99197096  0.73206180  0.03368220    -0.73100
O2073       O  0.69394854  0.72068001  0.91924851    -0.73800
O2074       O  0.93618566  0.67606747  0.03386080    -0.73200
O2075       O  0.71255222  0.75893158  0.96508528    -0.73700
O2076       O  0.73991145  0.73281769  0.03374116    -0.73600
O2077       O  0.73967903  0.67684441  0.03463857    -0.73400
C2078       C  0.71135444  0.95764193  0.93459717     0.78400
C2079       C  0.91385533  0.95667458  0.93351575     0.78900
C2080       C  0.95717445  0.91462075  0.04397830     0.77900
C2081       C  0.95693967  0.71120601  0.04308264     0.78200
C2082       C  0.71038332  0.75407202  0.93285262     0.79400
C2083       C  0.75406208  0.71207615  0.04350083     0.78400
Zn2084     Zn  0.69404098  0.72170889  0.47297483     1.49700
Zn2085     Zn  0.69367169  0.97446305  0.47213297     1.49400
Zn2086     Zn  0.66739456  0.66764536  0.53909272     1.49100
Zn2087     Zn  0.94705207  0.97473994  0.47272281     1.49500
O2088       O  0.66722275  0.66802504  0.48915609    -1.82900
O2089       O  0.74007022  0.73271964  0.44404754    -0.73500
O2090       O  0.71275474  0.95513800  0.51089220    -0.73300
O2091       O  0.69423771  0.72123975  0.55829812    -0.72800
O2092       O  0.73945406  0.67655121  0.44320581    -0.73500
O2093       O  0.71264428  0.75931364  0.51234442    -0.73100
O2094       O  0.69435640  0.97403979  0.55730766    -0.73700
O2095       O  0.90935298  0.95602709  0.51202445    -0.73100
O2096       O  0.99182488  0.92899168  0.44279298    -0.73800
O2097       O  0.94724575  0.97406512  0.55804993    -0.73200
O2098       O  0.93590977  0.92875210  0.44358661    -0.73700
O2099       O  0.93648457  0.67666751  0.44376209    -0.73600
O2100       O  0.99243597  0.73248602  0.44372515    -0.73400
C2101       C  0.75405705  0.71180810  0.43435375     0.78400
C2102       C  0.71075807  0.95737285  0.54319320     0.78900
C2103       C  0.71057542  0.75457529  0.54458672     0.77900
C2104       C  0.91398524  0.95788299  0.54427682     0.78200
C2105       C  0.95665673  0.91461099  0.43384053     0.79400
C2106       C  0.95738745  0.71172558  0.43438219     0.78400
C2107       C  0.81501334  0.74208495  0.08385506    -0.12000
C2108       C  0.78718493  0.72879227  0.06540082    -0.13600
C2109       C  0.92629918  0.85349510  0.08418061    -0.12000
C2110       C  0.94050399  0.88147491  0.06587078    -0.13600
C2111       C  0.92682303  0.74197092  0.08359803    -0.12000
C2112       C  0.94041524  0.72778818  0.06504530    -0.13600
C2113       C  0.97085394  0.89484739  0.20643083    -0.12100
C2114       C  0.96269611  0.92472764  0.19984547     0.10100
C2115       C  0.93698147  0.92006535  0.17342175    -0.12100
C2116       C  0.91900787  0.88574198  0.15440251    -0.12100
C2117       C  0.92684530  0.85569166  0.16121474     0.10100
C2118       C  0.95269233  0.86042142  0.18755177    -0.12100
H2119       H  0.99108730  0.89806968  0.22637138     0.14100
H2120       H  0.93011059  0.94262070  0.16806228     0.14100
H2121       H  0.89863498  0.88248658  0.13459020     0.14100
H2122       H  0.95935521  0.83775696  0.19308420     0.14100
C2123       C  0.90771968  0.71550455  0.18732501    -0.12100
C2124       C  0.92875511  0.74114748  0.16078949     0.10100
C2125       C  0.96657894  0.74890965  0.15388642    -0.12100
C2126       C  0.98297870  0.73114896  0.17308643    -0.12100
C2127       C  0.96202709  0.70569571  0.19975270     0.10100
C2128       C  0.92401479  0.69753347  0.20635845    -0.12100
H2129       H  0.87843516  0.70888827  0.19293573     0.14100
H2130       H  0.98364239  0.76912617  0.13392404     0.14100
H2131       H  0.01236866  0.73798258  0.16766343     0.14100
H2132       H  0.90703530  0.67743531  0.22642586     0.14100
C2133       C  0.80845820  0.76017634  0.18817904    -0.12100
C2134       C  0.81244764  0.73941750  0.16105646     0.10100
C2135       C  0.78177625  0.70198513  0.15365240    -0.12100
C2136       C  0.74763453  0.68574106  0.17288579    -0.12100
C2137       C  0.74372204  0.70641904  0.20011218     0.10100
C2138       C  0.77420363  0.74404603  0.20724594    -0.12100
H2139       H  0.83157258  0.78917423  0.19419375     0.14100
H2140       H  0.78441748  0.68506698  0.13326637     0.14100
H2141       H  0.72461298  0.65664826  0.16702039     0.14100
H2142       H  0.77156649  0.76090563  0.22769049     0.14100
C2143       C  0.78722817  0.72839433  0.41251651    -0.12000
C2144       C  0.81506058  0.74219807  0.39405559    -0.13600
C2145       C  0.92636835  0.85352617  0.39351971    -0.12000
C2146       C  0.93995322  0.88146469  0.41190218    -0.13600
C2147       C  0.94094297  0.72829375  0.41235600    -0.12000
C2148       C  0.92675961  0.74189055  0.39384133    -0.13600
C2149       C  0.96589752  0.88580271  0.32325401    -0.12100
C2150       C  0.92807884  0.85562925  0.31645160     0.10100
C2151       C  0.90683675  0.86018772  0.29011888    -0.12100
C2152       C  0.92296079  0.89460409  0.27121575    -0.12100
C2153       C  0.96095962  0.92460980  0.27780954     0.10100
C2154       C  0.98209477  0.92008373  0.30422891    -0.12100
H2155       H  0.98309549  0.88266641  0.34305956     0.14100
H2156       H  0.87754833  0.83739476  0.28459990     0.14100
H2157       H  0.90589283  0.89771738  0.25126482     0.14100
H2158       H  0.67816532  0.94266877  0.30962372     0.14100
C2159       C  0.91986788  0.70219987  0.32354014    -0.12100
C2160       C  0.92742120  0.73999236  0.31670910     0.10100
C2161       C  0.95315852  0.76127808  0.29030455    -0.12100
C2162       C  0.97140283  0.74520728  0.27131233    -0.12100
C2163       C  0.96342811  0.70719819  0.27786793     0.10100
C2164       C  0.93788805  0.68604061  0.30440595    -0.12100
H2165       H  0.89960827  0.68496793  0.34341067     0.14100
H2166       H  0.95961031  0.79055799  0.28476575     0.14100
H2167       H  0.99152305  0.76232630  0.25131140     0.14100
H2168       H  0.93058677  0.98967878  0.30959943     0.14100
C2169       C  0.74807355  0.73051635  0.30453386    -0.12100
C2170       C  0.74330505  0.70453939  0.27827990     0.10100
C2171       C  0.77291205  0.69592661  0.27203506    -0.12100
C2172       C  0.80727610  0.71408057  0.29097997    -0.12100
C2173       C  0.81219597  0.74039712  0.31699496     0.10100
C2174       C  0.78231124  0.74847938  0.32359362    -0.12100
H2175       H  0.72571132  0.73770324  0.30965759     0.14100
H2176       H  0.76963360  0.00899633  0.25216702     0.14100
H2177       H  0.82981616  0.70720109  0.28565326     0.14100
H2178       H  0.78569052  0.76914905  0.34318495     0.14100
C2179       C  0.72709998  0.78725052  0.91102640    -0.12000
C2180       C  0.74138216  0.81514880  0.89263990    -0.13600
C2181       C  0.85278780  0.92663943  0.89333772    -0.12000
C2182       C  0.88055894  0.93994464  0.91184579    -0.13600
C2183       C  0.72808578  0.94092192  0.91319574    -0.12000
C2184       C  0.74144480  0.92677672  0.89441664    -0.13600
C2185       C  0.85959520  0.90862756  0.78970780    -0.12100
C2186       C  0.85508815  0.92969636  0.81623647     0.10100
C2187       C  0.88522447  0.96750391  0.82323603    -0.12100
C2188       C  0.91947155  0.98384405  0.80417739    -0.12100
C2189       C  0.92396437  0.96279994  0.77761765     0.10100
C2190       C  0.89395468  0.92485093  0.77082924    -0.12100
H2191       H  0.83682698  0.87934683  0.78405736     0.12500
H2192       H  0.88210203  0.98453062  0.84324222     0.14100
H2193       H  0.94214085  0.01321371  0.80967702     0.14100
H2194       H  0.89706621  0.90782937  0.75081027     0.14100
C2195       C  0.68479621  0.93810103  0.80469237    -0.12100
C2196       C  0.70582794  0.96381197  0.77818373     0.10100
C2197       C  0.74402392  0.97240855  0.77187333    -0.12100
C2198       C  0.76039428  0.95452251  0.79095226    -0.12100
C2199       C  0.73921259  0.92846014  0.81720145     0.10100
C2200       C  0.70126785  0.92041876  0.82393845    -0.12100
H2201       H  0.65528230  0.93097906  0.80992499     0.14100
H2202       H  0.76104855  0.99270734  0.75193986     0.14100
H2203       H  0.78979029  0.96139428  0.78550647     0.14100
H2204       H  0.68414008  0.89996568  0.84373640     0.14100
C2205       C  0.75061211  0.78462879  0.82137455    -0.12100
C2206       C  0.74097720  0.81361928  0.81575330     0.10100
C2207       C  0.71339163  0.80785219  0.79078588    -0.12100
C2208       C  0.69523240  0.77331269  0.77207548    -0.12100
C2209       C  0.70499836  0.74439646  0.77761923     0.10100
C2210       C  0.73259686  0.75018114  0.80255861    -0.12100
H2211       H  0.77224223  0.78877187  0.84022448     0.14100
H2212       H  0.70542706  0.82977344  0.78623273     0.14100
H2213       H  0.00701619  0.76920807  0.75318574     0.14100
H2214       H  0.74074127  0.72836445  0.80695321     0.14100
C2215       C  0.72713859  0.78782001  0.56630994    -0.12000
C2216       C  0.74085677  0.81567678  0.58473225    -0.13600
C2217       C  0.88070814  0.94118320  0.56594490    -0.12000
C2218       C  0.85288599  0.92705306  0.58439186    -0.13600
C2219       C  0.74163597  0.92729291  0.58338812    -0.12000
C2220       C  0.72754486  0.94071450  0.56461321    -0.13600
C2221       C  0.70099012  0.78392822  0.65531955    -0.12100
C2222       C  0.73909368  0.81372950  0.66174169     0.10100
C2223       C  0.76058037  0.80874840  0.68756671    -0.12100
C2224       C  0.74444442  0.77423870  0.70631226    -0.12100
C2225       C  0.70624018  0.74452918  0.70002521     0.10100
C2226       C  0.68477972  0.74951905  0.67419255    -0.12100
H2227       H  0.68367349  0.78741495  0.63585095     0.14100
H2228       H  0.79008497  0.83126084  0.69275796     0.14100
H2229       H  0.76170861  0.77077358  0.72584867     0.14100
H2230       H  0.98842057  0.72714823  0.66922104     0.14100
C2231       C  0.86059452  0.95541724  0.68683890    -0.12100
C2232       C  0.85526264  0.92841899  0.66135924     0.10100
C2233       C  0.88472473  0.91961206  0.65521329    -0.12100
C2234       C  0.91905268  0.93764178  0.67413144    -0.12100
C2235       C  0.92429186  0.96441596  0.69976658     0.10100
C2236       C  0.89503546  0.97360870  0.70565959    -0.12100
H2237       H  0.83835994  0.96281714  0.69179253     0.14100
H2238       H  0.88098076  0.89843627  0.63598796     0.14100
H2239       H  0.94113932  0.92998842  0.66935694     0.14100
H2240       H  0.89873621  0.99460003  0.72506749     0.14100
C2241       C  0.71509510  0.90837896  0.68765033    -0.12100
C2242       C  0.74011504  0.92936701  0.66073009     0.10100
C2243       C  0.74691116  0.96680963  0.65343507    -0.12100
C2244       C  0.72898693  0.98295286  0.67272818    -0.12100
C2245       C  0.70431127  0.96215110  0.69988251     0.10100
C2246       C  0.69695286  0.92442388  0.70679473    -0.12100
H2247       H  0.70915370  0.87933323  0.69353736     0.14100
H2248       H  0.76663037  0.98386856  0.63318913     0.14100
H2249       H  0.73519452  0.01212374  0.66701821     0.14100
H2250       H  0.67736675  0.90747650  0.72716539     0.14100
loop_ 
_geom_bond_atom_site_label_1 
_geom_bond_atom_site_label_2 
_geom_bond_distance 
_geom_bond_site_symmetry_2 
_ccdc_geom_bond_type 
C1            H2   1.111       .  S
C1            C7   1.543       .  S
C1            C6   1.543       .  S
C1            C5   1.544       .  S
C3            H4   1.113       .  S
C3            C9   1.523       .  S
C3            C8   1.524       .  S
C3           C10   1.524       .  S
C5            C8   1.372       .  D
C5          C242   1.485       .  S
C6            C9   1.371       .  D
C6          C232   1.484       .  S
C7           C10   1.371       .  D
C7          C222   1.483       .  S
C8          C219   1.437       .  S
C9          C218   1.437       .  S
C10         C216   1.437       .  S
C11          H12   1.111       .  S
C11          C17   1.543       .  S
C11          C16   1.543       .  S
C11          C15   1.543       .  S
C13          H14   1.113       .  S
C13          C19   1.524       .  S
C13          C18   1.524       .  S
C13          C20   1.523       .  S
C15          C18   1.371       .  D
C15         C186   1.483       .  S
C16          C19   1.372       .  D
C16         C199   1.487       .  S
C17          C20   1.370       .  D
C17         C206   1.482       .  S
C18         C181   1.439       .  S
C19         C184   1.436       .  S
C20         C180   1.438       .  S
C21          H22   1.111       .  S
C21          C26   1.537       .  S
C21        C2027   1.536   1_445  S
C21         C525   1.539   1_545  S
C23          H24   1.111       .  S
C23         C779   1.537       .  S
C23        C1278   1.538   1_545  S
C23         C530   1.539   1_545  S
C25         C271   1.539       .  S
C25          C28   1.377       .  D
C25         C245   1.486       .  S
C26          C29   1.374       .  D
C26         C225   1.485       .  S
C27        C1021   1.536       .  S
C27          C30   1.375       .  D
C27         C235   1.484       .  S
C28        C1773   1.538       .  S
C28         C196   1.487       .  S
C29        C1523   1.537       .  S
C29         C209   1.482       .  S
C30         C273   1.539       .  S
C30         C189   1.484       .  S
C31          H32   1.111       .  S
C31          C37   1.544       .  S
C31          C36   1.544       .  S
C31          C35   1.544       .  S
C33          H34   1.113       .  S
C33          C39   1.526       .  S
C33          C38   1.525       .  S
C33          C40   1.525       .  S
C35          C38   1.371       .  D
C35         C173   1.486       .  S
C36          C39   1.371       .  D
C36         C160   1.485       .  S
C37          C40   1.371       .  D
C37         C150   1.485       .  S
C38         C144   1.438       .  S
C39         C148   1.440       .  S
C40         C145   1.440       .  S
C41          H42   1.113       .  S
C41          C47   1.525       .  S
C41          C46   1.526       .  S
C41          C45   1.526       .  S
C43          H44   1.111       .  S
C43          C49   1.544       .  S
C43          C48   1.544       .  S
C43          C50   1.544       .  S
C45          C48   1.372       .  D
C45         C107   1.439       .  S
C46          C49   1.372       .  D
C46         C111   1.440       .  S
C47          C50   1.371       .  D
C47         C109   1.439       .  S
C48         C134   1.486       .  S
C49         C124   1.486       .  S
C50         C117   1.485       .  S
C51          H52   1.111       .  S
C51          C57   1.540       .  S
C51        C2056   1.539   1_445  S
C51        C1555   1.539   1_455  S
C53          H54   1.111       .  S
C53          C60   1.538       .  S
C53        C2059   1.538   1_445  S
C53        C1558   1.538   1_455  S
C55         C801   1.539       .  S
C55          C58   1.376       .  D
C55         C127   1.486       .  S
C56        C1051   1.539       .  S
C56          C59   1.375       .  D
C56         C114   1.486       .  S
C57          C60   1.376       .  D
C57         C137   1.487       .  S
C58         C803   1.538       .  S
C58         C163   1.486       .  S
C59        C1053   1.538       .  S
C59         C153   1.485       .  S
C60         C170   1.486       .  S
Zn61         O66   2.013   1_554  S
Zn61       O1570   2.006   1_455  S
Zn61        O327   2.004       .  S
Zn61        O315   1.957   1_554  S
Zn62         O73   1.996       .  S
Zn62       O2067   1.996   1_445  S
Zn62        O569   1.992   1_545  S
Zn62         O65   1.953       .  S
Zn63         O68   2.008       .  S
Zn63         O71   2.016   1_554  S
Zn63        O324   2.010       .  S
Zn63       O1065   1.956   1_554  S
Zn64         O75   2.014   1_554  S
Zn64         O76   2.010       .  S
Zn64       O1572   2.010   1_455  S
Zn64         O65   1.957   1_554  S
O65        Zn561   1.957   1_546  S
O65       Zn2063   1.957   1_446  S
O66          C78   1.271       .  A
O67       Zn1062   1.996       .  S
O67          C79   1.269       .  A
O68          C80   1.271       .  A
O69        Zn312   1.991       .  S
O69          C78   1.268       .  A
O70        Zn811   2.007       .  S
O70          C80   1.270       .  A
O71          C79   1.272       .  A
O72        Zn814   2.010       .  S
O72          C81   1.271       .  A
O73          C82   1.269       .  A
O74        Zn563   2.010   1_545  S
O74          C81   1.271       .  A
O75          C82   1.272       .  A
O76          C83   1.271       .  A
O77        Zn561   2.005   1_545  S
O77          C83   1.270       .  A
C78         C183   1.426       .  S
C79         C182   1.428       .  S
C80         C110   1.429       .  S
C81         C112   1.430       .  S
C82         C179   1.428       .  S
C83         C108   1.429       .  S
Zn84         O89   2.008       .  S
Zn84         O93   2.014       .  S
Zn84       O1600   2.008   1_455  S
Zn84         O88   1.957       .  S
Zn85         O90   2.013       .  S
Zn85        O342   2.004       .  S
Zn85       O1596   2.007   1_455  S
Zn85        O338   1.956       .  S
Zn86         O91   1.995       .  S
Zn86        O594   1.992   1_545  S
Zn86       O2097   1.995   1_445  S
Zn86         O88   1.953       .  S
Zn87         O95   2.014       .  S
Zn87         O98   2.009       .  S
Zn87        O349   2.008       .  S
Zn87       O1088   1.956       .  S
O88        Zn585   1.956   1_545  S
O88       Zn2087   1.956   1_445  S
O89         C101   1.271       .  A
O90         C102   1.271       .  A
O91         C103   1.269       .  A
O92        Zn585   2.005   1_545  S
O92         C101   1.270       .  A
O93         C103   1.271       .  A
O94        Zn336   1.992       .  S
O94         C102   1.268       .  A
O95         C104   1.272       .  A
O96        Zn835   2.007       .  S
O96         C105   1.270       .  A
O97       Zn1086   1.995       .  S
O97         C104   1.269       .  A
O98         C105   1.271       .  A
O99        Zn587   2.008   1_545  S
O99         C106   1.271       .  A
O100       Zn834   2.008       .  S
O100        C106   1.271       .  A
C101        C143   1.428       .  S
C102        C220   1.426       .  S
C103        C215   1.427       .  S
C104        C217   1.427       .  S
C105        C146   1.429       .  S
C106        C147   1.429       .  S
C107        C108   1.202       .  T
C109        C110   1.202       .  T
C111        C112   1.203       .  T
C113        C114   1.406       .  A
C113        C118   1.398       .  A
C113        H119   1.083       .  S
C114        C115   1.402       .  A
C115        C116   1.399       .  A
C115        H120   1.083       .  S
C116        C117   1.406       .  A
C116        H121   1.083       .  S
C117        C118   1.402       .  A
C118        H122   1.083       .  S
C123        C124   1.402       .  A
C123        C128   1.399       .  A
C123        H129   1.083       .  S
C124        C125   1.406       .  A
C125        C126   1.399       .  A
C125        H130   1.083       .  S
C126        C127   1.402       .  A
C126        H131   1.083       .  S
C127        C128   1.406       .  A
C128        H132   1.083       .  S
C133        C134   1.402       .  A
C133        C138   1.399       .  A
C133        H139   1.083       .  S
C134        C135   1.406       .  A
C135        C136   1.399       .  A
C135        H140   1.083       .  S
C136        C137   1.402       .  A
C136        H141   1.083   1_545  S
C137        C138   1.406       .  A
C138        H142   1.083       .  S
C143        C144   1.202       .  T
C145        C146   1.202       .  T
C147        C148   1.202       .  T
C149        C150   1.406       .  A
C149        C154   1.397       .  A
C149        H155   1.083       .  S
C150        C151   1.402       .  A
C151        C152   1.399       .  A
C151        H156   1.083       .  S
C152        C153   1.407       .  A
C152        H157   1.083       .  S
C153        C154   1.401       .  A
C154        H908   1.083       .  S
H158       C1654   1.083   1_455  S
C159        C160   1.406       .  A
C159        C164   1.398       .  A
C159        H165   1.083       .  S
C160        C161   1.402       .  A
C161        C162   1.399       .  A
C161        H166   1.083       .  S
C162        C163   1.406       .  A
C162        H167   1.083       .  S
C163        C164   1.402       .  A
C164        H668   1.083   1_545  S
H168        C414   1.083       .  S
C169        C170   1.402       .  A
C169        C174   1.398       .  A
C169        H175   1.083       .  S
C170        C171   1.407       .  A
C171        C172   1.400       .  A
C171        H676   1.083       .  S
C172        C173   1.402       .  A
C172        H177   1.083       .  S
C173        C174   1.406       .  A
C174        H178   1.083       .  S
H176        C421   1.083       .  S
C179        C180   1.201       .  T
C181        C182   1.202       .  T
C183        C184   1.200       .  T
C185        C186   1.401       .  A
C185        C190   1.398       .  A
C185        H191   1.083       .  S
C186        C187   1.406       .  A
C187        C188   1.398       .  A
C187        H192   1.083       .  S
C188        C189   1.401       .  A
C188        H193   1.083       .  S
C189        C190   1.406       .  A
C190        H194   1.083       .  S
C195        C196   1.403       .  A
C195        C200   1.400       .  A
C195        H201   1.083   1_455  S
C196        C197   1.406       .  A
C197        C198   1.399       .  A
C197        H202   1.083       .  S
C198        C199   1.402       .  A
C198        H203   1.083       .  S
C199        C200   1.406       .  A
C200        H204   1.083       .  S
C205        C206   1.405       .  A
C205        C210   1.398       .  A
C205        H211   1.083       .  S
C206        C207   1.402       .  A
C207        C208   1.398       .  A
C207        H212   1.083       .  S
C208        C209   1.406       .  A
C208       H1713   1.083       .  S
C209        C210   1.401       .  A
C210        H214   1.083       .  S
H213        C958   1.083       .  S
C215        C216   1.201       .  T
C217        C218   1.201       .  T
C219        C220   1.201       .  T
C221        C222   1.406       .  A
C221        C226   1.398       .  A
C221        H227   1.083       .  S
C222        C223   1.402       .  A
C223        C224   1.398       .  A
C223        H228   1.083       .  S
C224        C225   1.406       .  A
C224        H229   1.083       .  S
C225        C226   1.402       .  A
C226       H1730   1.083   1_455  S
H230        C976   1.083       .  S
C231        C232   1.402       .  A
C231        C236   1.399       .  A
C231        H237   1.083       .  S
C232        C233   1.405       .  A
C233        C234   1.398       .  A
C233        H238   1.083       .  S
C234        C235   1.401       .  A
C234        H239   1.083       .  S
C235        C236   1.406       .  A
C236        H240   1.083       .  S
C241        C242   1.403       .  A
C241        C246   1.399       .  A
C241        H247   1.083       .  S
C242        C243   1.406       .  A
C243        C244   1.398       .  A
C243        H248   1.083       .  S
C244        C245   1.402       .  A
C244        H249   1.083       .  S
C245        C246   1.406       .  A
C246        H250   1.083       .  S
C251        H252   1.111       .  S
C251        C257   1.543       .  S
C251        C256   1.543       .  S
C251        C255   1.544       .  S
C253        H254   1.113       .  S
C253        C259   1.523       .  S
C253        C258   1.523       .  S
C253        C260   1.524       .  S
C255        C258   1.372       .  D
C255        C492   1.485       .  S
C256        C259   1.371       .  D
C256        C482   1.484       .  S
C257        C260   1.371       .  D
C257        C472   1.484       .  S
C258        C469   1.437       .  S
C259        C468   1.437       .  S
C260        C466   1.437       .  S
C261        H262   1.111       .  S
C261        C267   1.543       .  S
C261        C266   1.544       .  S
C261        C265   1.543       .  S
C263        H264   1.113       .  S
C263        C269   1.524       .  S
C263        C268   1.524       .  S
C263        C270   1.523       .  S
C265        C268   1.371       .  D
C265        C436   1.483       .  S
C266        C269   1.372       .  D
C266        C449   1.486       .  S
C267        C270   1.370       .  D
C267        C456   1.482       .  S
C268        C431   1.438       .  S
C269        C434   1.436       .  S
C270        C430   1.438       .  S
C271        H272   1.111       .  S
C271       C1527   1.537   1_455  S
C271        C276   1.537       .  S
C273        H274   1.111       .  S
C273       C1029   1.537       .  S
C273        C778   1.538       .  S
C275        C521   1.540       .  S
C275        C278   1.377       .  D
C275        C495   1.486       .  S
C276        C279   1.374       .  D
C276        C475   1.484       .  S
C277       C1271   1.537       .  S
C277        C280   1.375       .  D
C277        C485   1.485       .  S
C278       C2023   1.538       .  S
C278        C446   1.487       .  S
C279       C1773   1.537       .  S
C279        C459   1.482       .  S
C280        C523   1.539       .  S
C280        C439   1.484       .  S
C281        H282   1.111       .  S
C281        C287   1.544       .  S
C281        C286   1.543       .  S
C281        C285   1.544       .  S
C283        H284   1.113       .  S
C283        C289   1.526       .  S
C283        C288   1.525       .  S
C283        C290   1.525       .  S
C285        C288   1.371       .  D
C285        C423   1.486       .  S
C286        C289   1.371       .  D
C286        C410   1.485       .  S
C287        C290   1.372       .  D
C287        C400   1.484       .  S
C288        C394   1.438       .  S
C289        C398   1.439       .  S
C290        C395   1.440       .  S
C291        H292   1.113       .  S
C291        C297   1.525       .  S
C291        C296   1.526       .  S
C291        C295   1.525       .  S
C293        H294   1.111       .  S
C293        C299   1.544       .  S
C293        C298   1.544       .  S
C293        C300   1.544       .  S
C295        C298   1.372       .  D
C295        C357   1.439       .  S
C296        C299   1.372       .  D
C296        C361   1.440       .  S
C297        C300   1.371       .  D
C297        C359   1.439       .  S
C298        C384   1.487       .  S
C299        C374   1.485       .  S
C300        C367   1.485       .  S
C301        H302   1.111       .  S
C301        C307   1.540       .  S
C301       C1556   1.539   1_455  S
C301       C1805   1.539   1_455  S
C303        H304   1.111       .  S
C303       C1559   1.538   1_455  S
C303       C1808   1.538   1_455  S
C303        C310   1.538       .  S
C305       C1051   1.539       .  S
C305        C308   1.376       .  D
C305        C377   1.486       .  S
C306       C1301   1.539       .  S
C306        C309   1.375       .  D
C306        C364   1.486       .  S
C307        C310   1.376       .  D
C307        C387   1.487       .  S
C308       C1053   1.538       .  S
C308        C413   1.486       .  S
C309       C1303   1.538       .  S
C309        C403   1.485       .  S
C310        C420   1.486       .  S
Zn311       O316   2.014   1_554  S
Zn311      O1820   2.006   1_455  S
Zn311       O577   2.005       .  S
Zn311       O565   1.957   1_554  S
Zn312      O1567   1.996   1_455  S
Zn312       O323   1.996       .  S
Zn312       O315   1.953       .  S
Zn313       O318   2.007       .  S
Zn313       O321   2.015   1_554  S
Zn313       O574   2.009       .  S
Zn313      O1315   1.956   1_554  S
Zn314      O1822   2.010   1_455  S
Zn314       O325   2.015   1_554  S
Zn314       O326   2.010       .  S
Zn314       O315   1.957   1_554  S
O315      Zn1563   1.956   1_456  S
O316        C328   1.271       .  A
O317      Zn1312   1.995       .  S
O317        C329   1.269       .  A
O318        C330   1.271       .  A
O319       Zn562   1.991       .  S
O319        C328   1.268       .  A
O320      Zn1061   2.006       .  S
O320        C330   1.270       .  A
O321        C329   1.272       .  A
O322      Zn1064   2.009       .  S
O322        C331   1.271       .  A
O323        C332   1.269       .  A
O324        C331   1.271       .  A
O325        C332   1.272       .  A
O326        C333   1.271       .  A
O327        C333   1.270       .  A
C328        C433   1.426       .  S
C329        C432   1.428       .  S
C330        C360   1.428       .  S
C331        C362   1.430       .  S
C332        C429   1.428       .  S
C333        C358   1.428       .  S
Zn334       O339   2.008       .  S
Zn334       O343   2.013       .  S
Zn334      O1850   2.008   1_455  S
Zn334       O338   1.956       .  S
Zn335       O340   2.014       .  S
Zn335       O592   2.004       .  S
Zn335      O1846   2.007   1_455  S
Zn335       O588   1.956       .  S
Zn336       O341   1.995       .  S
Zn336      O1597   1.995   1_455  S
Zn336       O338   1.952       .  S
Zn337       O345   2.012       .  S
Zn337       O348   2.009       .  S
Zn337       O599   2.008       .  S
Zn337      O1338   1.956       .  S
O338      Zn1587   1.956   1_455  S
O339        C351   1.271       .  A
O340        C352   1.271       .  A
O341        C353   1.269       .  A
O342        C351   1.270       .  A
O343        C353   1.271       .  A
O344       Zn586   1.993       .  S
O344        C352   1.268       .  A
O345        C354   1.271       .  A
O346      Zn1085   2.007       .  S
O346        C355   1.270       .  A
O347      Zn1336   1.995       .  S
O347        C354   1.269       .  A
O348        C355   1.271       .  A
O349        C356   1.271       .  A
O350      Zn1084   2.008       .  S
O350        C356   1.271       .  A
C351        C393   1.428       .  S
C352        C470   1.427       .  S
C353        C465   1.427       .  S
C354        C467   1.427       .  S
C355        C396   1.429       .  S
C356        C397   1.429       .  S
C357        C358   1.202       .  T
C359        C360   1.202       .  T
C361        C362   1.203       .  T
C363        C364   1.406       .  A
C363        C368   1.399       .  A
C363        H369   1.083       .  S
C364        C365   1.402       .  A
C365        C366   1.398       .  A
C365        H370   1.083       .  S
C366        C367   1.406       .  A
C366        H371   1.083       .  S
C367        C368   1.402       .  A
C368        H372   1.083       .  S
C373        C374   1.402       .  A
C373        C378   1.399       .  A
C373        H379   1.083       .  S
C374        C375   1.406       .  A
C375        C376   1.399       .  A
C375        H380   1.083       .  S
C376        C377   1.402       .  A
C376        H381   1.083       .  S
C377        C378   1.406       .  A
C378        H382   1.083       .  S
C383        C384   1.402       .  A
C383        C388   1.399       .  A
C383        H389   1.083       .  S
C384        C385   1.406       .  A
C385        C386   1.399       .  A
C385        H390   1.083       .  S
C386        C387   1.402       .  A
C386        H391   1.083       .  S
C387        C388   1.407       .  A
C388        H392   1.083       .  S
C393        C394   1.202       .  T
C395        C396   1.202       .  T
C397        C398   1.202       .  T
C399        C400   1.406       .  A
C399        C404   1.397       .  A
C399        H405   1.083       .  S
C400        C401   1.402       .  A
C401        C402   1.399       .  A
C401        H406   1.083       .  S
C402        C403   1.407       .  A
C402        H407   1.083       .  S
C403        C404   1.401       .  A
C404       H1158   1.083       .  S
H408       C1904   1.083   1_455  S
C409        C410   1.406       .  A
C409        C414   1.398       .  A
C409        H415   1.083       .  S
C410        C411   1.402       .  A
C411        C412   1.399       .  A
C411        H416   1.083       .  S
C412        C413   1.406       .  A
C412        H417   1.083       .  S
C413        C414   1.402       .  A
H418        C664   1.083       .  S
C419        C420   1.402       .  A
C419        C424   1.398       .  A
C419        H425   1.083       .  S
C420        C421   1.406       .  A
C421        C422   1.399       .  A
C422        C423   1.402       .  A
C422        H427   1.083       .  S
C423        C424   1.406       .  A
C424        H428   1.083       .  S
H426        C671   1.083       .  S
C429        C430   1.201       .  T
C431        C432   1.202       .  T
C433        C434   1.200       .  T
C435        C436   1.402       .  A
C435        C440   1.398       .  A
C435        H441   1.083       .  S
C436        C437   1.406       .  A
C437        C438   1.398       .  A
C437        H442   1.083       .  S
C438        C439   1.402       .  A
C438        H443   1.083       .  S
C439        C440   1.406       .  A
C440        H444   1.083       .  S
C445        C446   1.402       .  A
C445        C450   1.400       .  A
C445        H451   1.083   1_455  S
C446        C447   1.406       .  A
C447        C448   1.399       .  A
C447        H452   1.083       .  S
C448        C449   1.402       .  A
C448        H453   1.083       .  S
C449        C450   1.406       .  A
C450        H454   1.083       .  S
C455        C456   1.405       .  A
C455        C460   1.398       .  A
C455        H461   1.083       .  S
C456        C457   1.401       .  A
C457        C458   1.398       .  A
C457        H462   1.083       .  S
C458        C459   1.406       .  A
C458       H1963   1.083       .  S
C459        C460   1.401       .  A
C460        H464   1.083       .  S
H463       C1208   1.083       .  S
C465        C466   1.201       .  T
C467        C468   1.201       .  T
C469        C470   1.201       .  T
C471        C472   1.406       .  A
C471        C476   1.398       .  A
C471        H477   1.083       .  S
C472        C473   1.402       .  A
C473        C474   1.398       .  A
C473        H478   1.083       .  S
C474        C475   1.406       .  A
C474        H479   1.083       .  S
C475        C476   1.401       .  A
C476       H1980   1.083   1_455  S
H480       C1226   1.083       .  S
C481        C482   1.402       .  A
C481        C486   1.399       .  A
C481        H487   1.083       .  S
C482        C483   1.406       .  A
C483        C484   1.398       .  A
C483        H488   1.083       .  S
C484        C485   1.401       .  A
C484        H489   1.083       .  S
C485        C486   1.406       .  A
C486        H490   1.083       .  S
C491        C492   1.402       .  A
C491        C496   1.398       .  A
C491        H497   1.083       .  S
C492        C493   1.406       .  A
C493        C494   1.398       .  A
C493        H498   1.083       .  S
C494        C495   1.402       .  A
C494        H499   1.083       .  S
C495        C496   1.406       .  A
C496        H500   1.083       .  S
C501        H502   1.111       .  S
C501        C507   1.543       .  S
C501        C506   1.543       .  S
C501        C505   1.544       .  S
C503        H504   1.113       .  S
C503        C509   1.523       .  S
C503        C508   1.523       .  S
C503        C510   1.524       .  S
C505        C508   1.372       .  D
C505        C742   1.485       .  S
C506        C509   1.371       .  D
C506        C732   1.484       .  S
C507        C510   1.371       .  D
C507        C722   1.483       .  S
C508        C719   1.437       .  S
C509        C718   1.438       .  S
C510        C716   1.437       .  S
C511        H512   1.111       .  S
C511        C517   1.543       .  S
C511        C516   1.544       .  S
C511        C515   1.543       .  S
C513        H514   1.113       .  S
C513        C519   1.525       .  S
C513        C518   1.524       .  S
C513        C520   1.523       .  S
C515        C518   1.371       .  D
C515        C686   1.483       .  S
C516        C519   1.372       .  D
C516        C699   1.487       .  S
C517        C520   1.370       .  D
C517        C706   1.482       .  S
C518        C681   1.439       .  S
C519        C684   1.436       .  S
C520        C680   1.438       .  S
C521        H522   1.111       .  S
C521       C1777   1.537   1_455  S
C521        C526   1.537       .  S
C523        H524   1.111       .  S
C523       C1279   1.537       .  S
C523       C1028   1.538       .  S
C525        C528   1.377       .  D
C525        C745   1.486       .  S
C526        C529   1.374       .  D
C526        C725   1.484       .  S
C527        C771   1.537   1_565  S
C527        C530   1.375       .  D
C527        C735   1.485       .  S
C528       C1523   1.538   1_565  S
C528        C696   1.487       .  S
C529       C2023   1.537       .  S
C529        C709   1.482       .  S
C530        C689   1.484       .  S
C531        H532   1.111       .  S
C531        C537   1.544       .  S
C531        C536   1.543       .  S
C531        C535   1.544       .  S
C533        H534   1.113       .  S
C533        C539   1.526       .  S
C533        C538   1.525       .  S
C533        C540   1.525       .  S
C535        C538   1.371       .  D
C535        C673   1.485       .  S
C536        C539   1.372       .  D
C536        C660   1.485       .  S
C537        C540   1.371       .  D
C537        C650   1.484       .  S
C538        C644   1.438       .  S
C539        C648   1.439       .  S
C540        C645   1.440       .  S
C541        H542   1.113       .  S
C541        C547   1.525       .  S
C541        C546   1.526       .  S
C541        C545   1.526       .  S
C543        H544   1.111       .  S
C543        C549   1.544       .  S
C543        C548   1.544       .  S
C543        C550   1.544       .  S
C545        C548   1.372       .  D
C545        C607   1.439       .  S
C546        C549   1.372       .  D
C546        C611   1.440       .  S
C547        C550   1.371       .  D
C547        C609   1.439       .  S
C548        C634   1.486       .  S
C549        C624   1.485       .  S
C550        C617   1.485       .  S
C551        H552   1.111       .  S
C551        C557   1.540       .  S
C551       C1806   1.538   1_455  S
C551       C2055   1.539   1_455  S
C553        H554   1.111       .  S
C553       C1809   1.538   1_455  S
C553       C2058   1.538   1_455  S
C553        C560   1.538       .  S
C555       C1301   1.539       .  S
C555        C558   1.376       .  D
C555        C627   1.486       .  S
C556        C801   1.539   1_565  S
C556        C559   1.375       .  D
C556        C614   1.486       .  S
C557        C560   1.376       .  D
C557        C637   1.487       .  S
C558       C1303   1.538       .  S
C558        C663   1.486       .  S
C559        C803   1.538   1_565  S
C559        C653   1.485       .  S
C560        C670   1.486       .  S
Zn561       O566   2.014   1_554  S
Zn561      O2070   2.005   1_455  S
Zn562      O1817   1.996   1_455  S
Zn562       O573   1.996       .  S
Zn562       O565   1.953       .  S
Zn563       O568   2.008       .  S
Zn563       O571   2.016   1_554  S
Zn563       O815   1.956   1_564  S
Zn564      O2072   2.009   1_455  S
Zn564       O575   2.015   1_554  S
Zn564       O576   2.011       .  S
Zn564       O565   1.957   1_554  S
O565      Zn1813   1.956   1_456  S
O566        C578   1.271       .  A
O567       Zn812   1.996   1_565  S
O567        C579   1.269       .  A
O568        C580   1.271       .  A
O569        C578   1.268       .  A
O570      Zn1311   2.006       .  S
O570        C580   1.270       .  A
O571        C579   1.272       .  A
O572      Zn1314   2.009       .  S
O572        C581   1.271       .  A
O573        C582   1.269       .  A
O574        C581   1.271       .  A
O575        C582   1.272       .  A
O576        C583   1.271       .  A
O577        C583   1.270       .  A
C578        C683   1.426       .  S
C579        C682   1.428       .  S
C580        C610   1.429       .  S
C581        C612   1.430       .  S
C582        C679   1.428       .  S
C583        C608   1.429       .  S
Zn584       O589   2.008       .  S
Zn584       O593   2.013       .  S
Zn584      O2100   2.008   1_455  S
Zn584       O588   1.957       .  S
Zn585       O590   2.014       .  S
Zn585      O2096   2.007   1_455  S
Zn586       O591   1.995       .  S
Zn586      O1847   1.996   1_455  S
Zn586       O588   1.953       .  S
Zn587       O595   2.014       .  S
Zn587       O598   2.009       .  S
Zn587       O838   1.956   1_565  S
O588      Zn1837   1.956   1_455  S
O589        C601   1.271       .  A
O590        C602   1.271       .  A
O591        C603   1.269       .  A
O592        C601   1.270       .  A
O593        C603   1.271       .  A
O594        C602   1.268       .  A
O595        C604   1.272       .  A
O596      Zn1335   2.007       .  S
O596        C605   1.270       .  A
O597       Zn836   1.995   1_565  S
O597        C604   1.269       .  A
O598        C605   1.271       .  A
O599        C606   1.271       .  A
O600      Zn1334   2.009       .  S
O600        C606   1.271       .  A
C601        C643   1.428       .  S
C602        C720   1.427       .  S
C603        C715   1.427       .  S
C604        C717   1.427       .  S
C605        C646   1.429       .  S
C606        C647   1.429       .  S
C607        C608   1.202       .  T
C609        C610   1.202       .  T
C611        C612   1.203       .  T
C613        C614   1.406       .  A
C613        C618   1.399       .  A
C613        H619   1.083       .  S
C614        C615   1.401       .  A
C615        C616   1.398       .  A
C615        H620   1.083       .  S
C616        C617   1.406       .  A
C616        H621   1.083       .  S
C617        C618   1.402       .  A
C618        H622   1.083       .  S
C623        C624   1.402       .  A
C623        C628   1.399       .  A
C623        H629   1.083       .  S
C624        C625   1.406       .  A
C625        C626   1.399       .  A
C625        H630   1.083       .  S
C626        C627   1.402       .  A
C626        H631   1.083       .  S
C627        C628   1.406       .  A
C628        H632   1.083       .  S
C633        C634   1.402       .  A
C633        C638   1.398       .  A
C633        H639   1.083       .  S
C634        C635   1.406       .  A
C635        C636   1.399       .  A
C635        H640   1.083       .  S
C636        C637   1.402       .  A
C636        H641   1.083       .  S
C637        C638   1.406       .  A
C638        H642   1.083       .  S
C643        C644   1.202       .  T
C645        C646   1.202       .  T
C647        C648   1.202       .  T
C649        C650   1.406       .  A
C649        C654   1.397       .  A
C649        H655   1.083       .  S
C650        C651   1.402       .  A
C651        C652   1.399       .  A
C651        H656   1.083       .  S
C652        C653   1.407       .  A
C652        H657   1.083       .  S
C653        C654   1.401       .  A
C654       H1408   1.083       .  S
H658       C2154   1.083   1_455  S
C659        C660   1.406       .  A
C659        C664   1.398       .  A
C659        H665   1.083       .  S
C660        C661   1.402       .  A
C661        C662   1.399       .  A
C661        H666   1.083       .  S
C662        C663   1.406       .  A
C662        H667   1.083       .  S
C663        C664   1.402       .  A
C669        C670   1.402       .  A
C669        C674   1.398       .  A
C669        H675   1.083       .  S
C670        C671   1.406       .  A
C671        C672   1.399       .  A
C672        C673   1.402       .  A
C672        H677   1.083       .  S
C673        C674   1.406       .  A
C674        H678   1.083       .  S
C679        C680   1.201       .  T
C681        C682   1.202       .  T
C683        C684   1.201       .  T
C685        C686   1.401       .  A
C685        C690   1.398       .  A
C685        H691   1.083       .  S
C686        C687   1.406       .  A
C687        C688   1.398       .  A
C687        H692   1.083       .  S
C688        C689   1.402       .  A
C688        H693   1.083   1_565  S
C689        C690   1.406       .  A
C690        H694   1.083       .  S
C695        C696   1.403       .  A
C695        C700   1.400       .  A
C695        H701   1.083   1_455  S
C696        C697   1.406       .  A
C697        C698   1.399       .  A
C697        H702   1.083       .  S
C698        C699   1.403       .  A
C698        H703   1.083       .  S
C699        C700   1.406       .  A
C700        H704   1.083       .  S
C705        C706   1.406       .  A
C705        C710   1.398       .  A
C705        H711   1.083       .  S
C706        C707   1.402       .  A
C707        C708   1.398       .  A
C707        H712   1.083       .  S
C708        C709   1.406       .  A
C708       H2213   1.083       .  S
C709        C710   1.401       .  A
C710        H714   1.083       .  S
H713       C1458   1.083       .  S
C715        C716   1.201       .  T
C717        C718   1.201       .  T
C719        C720   1.201       .  T
C721        C722   1.406       .  A
C721        C726   1.398       .  A
C721        H727   1.083       .  S
C722        C723   1.402       .  A
C723        C724   1.398       .  A
C723        H728   1.083       .  S
C724        C725   1.406       .  A
C724        H729   1.083       .  S
C725        C726   1.401       .  A
C726       H2230   1.083   1_455  S
H730       C1476   1.083       .  S
C731        C732   1.402       .  A
C731        C736   1.399       .  A
C731        H737   1.083       .  S
C732        C733   1.405       .  A
C733        C734   1.398       .  A
C733        H738   1.083       .  S
C734        C735   1.401       .  A
C734        H739   1.083       .  S
C735        C736   1.406       .  A
C736        H740   1.083       .  S
C741        C742   1.403       .  A
C741        C746   1.398       .  A
C741        H747   1.084       .  S
C742        C743   1.406       .  A
C743        C744   1.398       .  A
C743        H748   1.082       .  S
C744        C745   1.402       .  A
C744        H749   1.084   1_565  S
C745        C746   1.406       .  A
C746        H750   1.083       .  S
C751        H752   1.111       .  S
C751        C757   1.543       .  S
C751        C756   1.543       .  S
C751        C755   1.544       .  S
C753        H754   1.113       .  S
C753        C759   1.523       .  S
C753        C758   1.524       .  S
C753        C760   1.524       .  S
C755        C758   1.372       .  D
C755        C992   1.485       .  S
C756        C759   1.371       .  D
C756        C982   1.484       .  S
C757        C760   1.371       .  D
C757        C972   1.483       .  S
C758        C969   1.437       .  S
C759        C968   1.437       .  S
C760        C966   1.437       .  S
C761        H762   1.111       .  S
C761        C767   1.543       .  S
C761        C766   1.543       .  S
C761        C765   1.543       .  S
C763        H764   1.113       .  S
C763        C769   1.524       .  S
C763        C768   1.524       .  S
C763        C770   1.523       .  S
C765        C768   1.371       .  D
C765        C936   1.483       .  S
C766        C769   1.372       .  D
C766        C949   1.486       .  S
C767        C770   1.370       .  D
C767        C956   1.482       .  S
C768        C931   1.438       .  S
C769        C934   1.436       .  S
C770        C930   1.438       .  S
C771        H772   1.111       .  S
C771        C776   1.537       .  S
C771       C1275   1.539   1_545  S
C773        H774   1.111       .  S
C773       C1529   1.537       .  S
C773       C2028   1.538   1_545  S
C773       C1280   1.539   1_545  S
C775       C1021   1.539       .  S
C775        C778   1.377       .  D
C775        C995   1.486       .  S
C776        C779   1.374       .  D
C776        C975   1.484       .  S
C777       C1771   1.537       .  S
C777        C780   1.375       .  D
C777        C985   1.485       .  S
C778        C946   1.487       .  S
C779        C959   1.482       .  S
C780       C1023   1.539       .  S
C780        C939   1.484       .  S
C781        H782   1.111       .  S
C781        C787   1.544       .  S
C781        C786   1.544       .  S
C781        C785   1.544       .  S
C783        H784   1.113       .  S
C783        C789   1.525       .  S
C783        C788   1.525       .  S
C783        C790   1.525       .  S
C785        C788   1.371       .  D
C785        C923   1.486       .  S
C786        C789   1.371       .  D
C786        C910   1.485       .  S
C787        C790   1.372       .  D
C787        C900   1.485       .  S
C788        C894   1.438       .  S
C789        C898   1.440       .  S
C790        C895   1.439       .  S
C791        H792   1.113       .  S
C791        C797   1.525       .  S
C791        C796   1.526       .  S
C791        C795   1.526       .  S
C793        H794   1.111       .  S
C793        C799   1.544       .  S
C793        C798   1.544       .  S
C793        C800   1.544       .  S
C795        C798   1.372       .  D
C795        C857   1.439       .  S
C796        C799   1.372       .  D
C796        C861   1.440       .  S
C797        C800   1.371       .  D
C797        C859   1.439       .  S
C798        C884   1.487       .  S
C799        C874   1.486       .  S
C800        C867   1.485       .  S
C801        H802   1.111       .  S
C801        C807   1.540       .  S
C803        H804   1.111       .  S
C803        C810   1.538       .  S
C805       C1551   1.539       .  S
C805        C808   1.376       .  D
C805        C877   1.486       .  S
C806       C1801   1.539       .  S
C806        C809   1.375       .  D
C806        C864   1.486       .  S
C807        C810   1.376       .  D
C807        C887   1.487       .  S
C808       C1553   1.538       .  S
C808        C913   1.485       .  S
C809       C1803   1.538       .  S
C809        C903   1.485       .  S
C810        C920   1.486       .  S
Zn811       O816   2.013   1_554  S
Zn811      O1077   2.004       .  S
Zn811      O1065   1.957   1_554  S
Zn812      O1319   1.992   1_545  S
Zn812       O823   1.995       .  S
Zn812       O815   1.953       .  S
Zn813       O818   2.007       .  S
Zn813       O821   2.016   1_554  S
Zn813      O1074   2.010       .  S
Zn813      O1815   1.956   1_554  S
Zn814       O825   2.014   1_554  S
Zn814       O826   2.010       .  S
Zn814       O815   1.957   1_554  S
O815      Zn1311   1.957   1_546  S
O816        C828   1.271       .  A
O817      Zn1812   1.996       .  S
O817        C829   1.269       .  A
O818        C830   1.271       .  A
O819      Zn1062   1.990       .  S
O819        C828   1.268       .  A
O820      Zn1561   2.006       .  S
O820        C830   1.270       .  A
O821        C829   1.272       .  A
O822      Zn1564   2.010       .  S
O822        C831   1.271       .  A
O823        C832   1.269       .  A
O824      Zn1313   2.010   1_545  S
O824        C831   1.271       .  A
O825        C832   1.272       .  A
O826        C833   1.271       .  A
O827      Zn1311   2.005   1_545  S
O827        C833   1.270       .  A
C828        C933   1.426       .  S
C829        C932   1.428       .  S
C830        C860   1.429       .  S
C831        C862   1.430       .  S
C832        C929   1.427       .  S
C833        C858   1.429       .  S
Zn834       O839   2.008       .  S
Zn834       O843   2.013       .  S
Zn834       O838   1.957       .  S
Zn835       O840   2.014       .  S
Zn835      O1092   2.004       .  S
Zn835      O1088   1.956       .  S
Zn836       O841   1.995       .  S
Zn836      O1344   1.993   1_545  S
Zn836       O838   1.953       .  S
Zn837       O845   2.014       .  S
Zn837       O848   2.009       .  S
Zn837      O1099   2.008       .  S
Zn837      O1838   1.956       .  S
O838      Zn1335   1.956   1_545  S
O839        C851   1.271       .  A
O840        C852   1.271       .  A
O841        C853   1.269       .  A
O842      Zn1335   2.005   1_545  S
O842        C851   1.270       .  A
O843        C853   1.271       .  A
O844      Zn1086   1.992       .  S
O844        C852   1.268       .  A
O845        C854   1.272       .  A
O846      Zn1585   2.007       .  S
O846        C855   1.270       .  A
O847      Zn1836   1.995       .  S
O847        C854   1.269       .  A
O848        C855   1.271       .  A
O849      Zn1337   2.008   1_545  S
O849        C856   1.271       .  A
O850      Zn1584   2.008       .  S
O850        C856   1.271       .  A
C851        C893   1.428       .  S
C852        C970   1.427       .  S
C853        C965   1.427       .  S
C854        C967   1.427       .  S
C855        C896   1.429       .  S
C856        C897   1.429       .  S
C857        C858   1.202       .  T
C859        C860   1.202       .  T
C861        C862   1.203       .  T
C863        C864   1.406       .  A
C863        C868   1.398       .  A
C863        H869   1.083       .  S
C864        C865   1.402       .  A
C865        C866   1.399       .  A
C865        H870   1.083       .  S
C866        C867   1.406       .  A
C866        H871   1.083       .  S
C867        C868   1.402       .  A
C868        H872   1.083       .  S
C873        C874   1.402       .  A
C873        C878   1.399       .  A
C873        H879   1.083       .  S
C874        C875   1.406       .  A
C875        C876   1.399       .  A
C875        H880   1.083       .  S
C876        C877   1.402       .  A
C876        H881   1.083       .  S
C877        C878   1.406       .  A
C878        H882   1.083       .  S
C883        C884   1.402       .  A
C883        C888   1.399       .  A
C883        H889   1.083       .  S
C884        C885   1.406       .  A
C885        C886   1.399       .  A
C885        H890   1.083       .  S
C886        C887   1.402       .  A
C886        H891   1.083   1_545  S
C887        C888   1.407       .  A
C888        H892   1.083       .  S
C893        C894   1.202       .  T
C895        C896   1.202       .  T
C897        C898   1.202       .  T
C899        C900   1.406       .  A
C899        C904   1.397       .  A
C899        H905   1.083       .  S
C900        C901   1.402       .  A
C901        C902   1.399       .  A
C901        H906   1.083       .  S
C902        C903   1.407       .  A
C902        H907   1.083       .  S
C903        C904   1.401       .  A
C904       H1658   1.083       .  S
C909        C910   1.406       .  A
C909        C914   1.398       .  A
C909        H915   1.083       .  S
C910        C911   1.402       .  A
C911        C912   1.399       .  A
C911        H916   1.083       .  S
C912        C913   1.406       .  A
C912        H917   1.083       .  S
C913        C914   1.402       .  A
C914       H1418   1.083   1_545  S
H918       C1164   1.083       .  S
C919        C920   1.402       .  A
C919        C924   1.398       .  A
C919        H925   1.083       .  S
C920        C921   1.406       .  A
C921        C922   1.400       .  A
C921       H1426   1.083       .  S
C922        C923   1.402       .  A
C922        H927   1.083       .  S
C923        C924   1.406       .  A
C924        H928   1.083       .  S
H926       C1171   1.083       .  S
C929        C930   1.201       .  T
C931        C932   1.202       .  T
C933        C934   1.200       .  T
C935        C936   1.401       .  A
C935        C940   1.397       .  A
C935        H941   1.083       .  S
C936        C937   1.406       .  A
C937        C938   1.398       .  A
C937        H942   1.083       .  S
C938        C939   1.402       .  A
C938        H943   1.083       .  S
C939        C940   1.406       .  A
C940        H944   1.083       .  S
C945        C946   1.402       .  A
C945        C950   1.400       .  A
C945        H951   1.083       .  S
C946        C947   1.406       .  A
C947        C948   1.399       .  A
C947        H952   1.083       .  S
C948        C949   1.402       .  A
C948        H953   1.083       .  S
C949        C950   1.406       .  A
C950        H954   1.083       .  S
C955        C956   1.405       .  A
C955        C960   1.398       .  A
C955        H961   1.083       .  S
C956        C957   1.402       .  A
C957        C958   1.398       .  A
C957        H962   1.083       .  S
C958        C959   1.406       .  A
C959        C960   1.401       .  A
C960        H964   1.083       .  S
H963       C1708   1.083       .  S
C965        C966   1.201       .  T
C967        C968   1.201       .  T
C969        C970   1.201       .  T
C971        C972   1.406       .  A
C971        C976   1.398       .  A
C971        H977   1.083       .  S
C972        C973   1.402       .  A
C973        C974   1.398       .  A
C973        H978   1.083       .  S
C974        C975   1.406       .  A
C974        H979   1.083       .  S
C975        C976   1.401       .  A
H980       C1726   1.083       .  S
C981        C982   1.402       .  A
C981        C986   1.399       .  A
C981        H987   1.083       .  S
C982        C983   1.405       .  A
C983        C984   1.398       .  A
C983        H988   1.083       .  S
C984        C985   1.401       .  A
C984        H989   1.083       .  S
C985        C986   1.406       .  A
C986        H990   1.083       .  S
C991        C992   1.403       .  A
C991        C996   1.399       .  A
C991        H997   1.083       .  S
C992        C993   1.406       .  A
C993        C994   1.398       .  A
C993        H998   1.083       .  S
C994        C995   1.402       .  A
C994        H999   1.083       .  S
C995        C996   1.406       .  A
C996       H1000   1.083       .  S
C1001      H1002   1.111       .  S
C1001      C1007   1.543       .  S
C1001      C1006   1.543       .  S
C1001      C1005   1.544       .  S
C1003      H1004   1.113       .  S
C1003      C1009   1.523       .  S
C1003      C1008   1.523       .  S
C1003      C1010   1.524       .  S
C1005      C1008   1.372       .  D
C1005      C1242   1.485       .  S
C1006      C1009   1.371       .  D
C1006      C1232   1.484       .  S
C1007      C1010   1.371       .  D
C1007      C1222   1.483       .  S
C1008      C1219   1.437       .  S
C1009      C1218   1.437       .  S
C1010      C1216   1.437       .  S
C1011      H1012   1.111       .  S
C1011      C1017   1.543       .  S
C1011      C1016   1.544       .  S
C1011      C1015   1.543       .  S
C1013      H1014   1.113       .  S
C1013      C1019   1.524       .  S
C1013      C1018   1.524       .  S
C1013      C1020   1.523       .  S
C1015      C1018   1.371       .  D
C1015      C1186   1.483       .  S
C1016      C1019   1.372       .  D
C1016      C1199   1.486       .  S
C1017      C1020   1.370       .  D
C1017      C1206   1.482       .  S
C1018      C1181   1.438       .  S
C1019      C1184   1.436       .  S
C1020      C1180   1.438       .  S
C1021      H1022   1.111       .  S
C1021      C1026   1.537       .  S
C1023      H1024   1.111       .  S
C1023      C1779   1.537       .  S
C1023      C1528   1.538       .  S
C1025      C1271   1.540       .  S
C1025      C1028   1.377       .  D
C1025      C1245   1.486       .  S
C1026      C1029   1.374       .  D
C1026      C1225   1.484       .  S
C1027      C2021   1.537       .  S
C1027      C1030   1.375       .  D
C1027      C1235   1.485       .  S
C1028      C1196   1.487       .  S
C1029      C1209   1.482       .  S
C1030      C1273   1.539       .  S
C1030      C1189   1.484       .  S
C1031      H1032   1.111       .  S
C1031      C1037   1.544       .  S
C1031      C1036   1.544       .  S
C1031      C1035   1.544       .  S
C1033      H1034   1.113       .  S
C1033      C1039   1.526       .  S
C1033      C1038   1.525       .  S
C1033      C1040   1.525       .  S
C1035      C1038   1.371       .  D
C1035      C1173   1.486       .  S
C1036      C1039   1.372       .  D
C1036      C1160   1.485       .  S
C1037      C1040   1.371       .  D
C1037      C1150   1.484       .  S
C1038      C1144   1.438       .  S
C1039      C1148   1.440       .  S
C1040      C1145   1.439       .  S
C1041      H1042   1.113       .  S
C1041      C1047   1.525       .  S
C1041      C1046   1.526       .  S
C1041      C1045   1.526       .  S
C1043      H1044   1.111       .  S
C1043      C1049   1.544       .  S
C1043      C1048   1.544       .  S
C1043      C1050   1.544       .  S
C1045      C1048   1.372       .  D
C1045      C1107   1.439       .  S
C1046      C1049   1.372       .  D
C1046      C1111   1.440       .  S
C1047      C1050   1.371       .  D
C1047      C1109   1.439       .  S
C1048      C1134   1.486       .  S
C1049      C1124   1.485       .  S
C1050      C1117   1.485       .  S
C1051      H1052   1.111       .  S
C1051      C1057   1.539       .  S
C1053      H1054   1.111       .  S
C1053      C1060   1.538       .  S
C1055      C1801   1.539       .  S
C1055      C1058   1.376       .  D
C1055      C1127   1.486       .  S
C1056      C2051   1.539       .  S
C1056      C1059   1.375       .  D
C1056      C1114   1.485       .  S
C1057      C1060   1.376       .  D
C1057      C1137   1.487       .  S
C1058      C1803   1.538       .  S
C1058      C1163   1.486       .  S
C1059      C2053   1.538       .  S
C1059      C1153   1.485       .  S
C1060      C1170   1.486       .  S
Zn1061     O1066   2.014   1_554  S
Zn1061     O1327   2.005       .  S
Zn1061     O1315   1.957   1_554  S
Zn1062     O1073   1.995       .  S
Zn1062     O1065   1.953       .  S
Zn1063     O1068   2.007       .  S
Zn1063     O1071   2.016   1_554  S
Zn1063     O1324   2.009       .  S
Zn1063     O2065   1.956   1_554  S
Zn1064     O1075   2.015   1_554  S
Zn1064     O1076   2.010       .  S
Zn1064     O1065   1.957   1_554  S
O1066      C1078   1.271       .  A
O1067     Zn2062   1.995       .  S
O1067      C1079   1.269       .  A
O1068      C1080   1.271       .  A
O1069     Zn1312   1.992       .  S
O1069      C1078   1.268       .  A
O1070     Zn1811   2.006       .  S
O1070      C1080   1.270       .  A
O1071      C1079   1.272       .  A
O1072     Zn1814   2.009       .  S
O1072      C1081   1.271       .  A
O1073      C1082   1.269       .  A
O1074      C1081   1.271       .  A
O1075      C1082   1.272       .  A
O1076      C1083   1.271       .  A
O1077      C1083   1.270       .  A
C1078      C1183   1.426       .  S
C1079      C1182   1.428       .  S
C1080      C1110   1.428       .  S
C1081      C1112   1.430       .  S
C1082      C1179   1.428       .  S
C1083      C1108   1.429       .  S
Zn1084     O1089   2.008       .  S
Zn1084     O1093   2.013       .  S
Zn1084     O1088   1.957       .  S
Zn1085     O1090   2.014       .  S
Zn1085     O1342   2.004       .  S
Zn1085     O1338   1.956       .  S
Zn1086     O1091   1.994       .  S
Zn1086     O1088   1.952       .  S
Zn1087     O1095   2.013       .  S
Zn1087     O1098   2.009       .  S
Zn1087     O1349   2.008       .  S
Zn1087     O2088   1.956       .  S
O1089      C1101   1.271       .  A
O1090      C1102   1.271       .  A
O1091      C1103   1.268       .  A
O1092      C1101   1.270       .  A
O1093      C1103   1.271       .  A
O1094     Zn1336   1.993       .  S
O1094      C1102   1.268       .  A
O1095      C1104   1.271       .  A
O1096     Zn1835   2.007       .  S
O1096      C1105   1.270       .  A
O1097     Zn2086   1.995       .  S
O1097      C1104   1.269       .  A
O1098      C1105   1.271       .  A
O1099      C1106   1.271       .  A
O1100     Zn1834   2.008       .  S
O1100      C1106   1.271       .  A
C1101      C1143   1.428       .  S
C1102      C1220   1.427       .  S
C1103      C1215   1.427       .  S
C1104      C1217   1.427       .  S
C1105      C1146   1.429       .  S
C1106      C1147   1.429       .  S
C1107      C1108   1.202       .  T
C1109      C1110   1.202       .  T
C1111      C1112   1.203       .  T
C1113      C1114   1.406       .  A
C1113      C1118   1.399       .  A
C1113      H1119   1.083       .  S
C1114      C1115   1.401       .  A
C1115      C1116   1.398       .  A
C1115      H1120   1.083       .  S
C1116      C1117   1.406       .  A
C1116      H1121   1.083       .  S
C1117      C1118   1.402       .  A
C1118      H1122   1.083       .  S
C1123      C1124   1.402       .  A
C1123      C1128   1.398       .  A
C1123      H1129   1.083       .  S
C1124      C1125   1.406       .  A
C1125      C1126   1.399       .  A
C1125      H1130   1.083       .  S
C1126      C1127   1.402       .  A
C1126      H1131   1.083       .  S
C1127      C1128   1.406       .  A
C1128      H1132   1.083       .  S
C1133      C1134   1.402       .  A
C1133      C1138   1.399       .  A
C1133      H1139   1.083       .  S
C1134      C1135   1.406       .  A
C1135      C1136   1.399       .  A
C1135      H1140   1.083       .  S
C1136      C1137   1.402       .  A
C1136      H1141   1.083       .  S
C1137      C1138   1.406       .  A
C1138      H1142   1.083       .  S
C1143      C1144   1.202       .  T
C1145      C1146   1.202       .  T
C1147      C1148   1.202       .  T
C1149      C1150   1.406       .  A
C1149      C1154   1.397       .  A
C1149      H1155   1.083       .  S
C1150      C1151   1.402       .  A
C1151      C1152   1.399       .  A
C1151      H1156   1.083       .  S
C1152      C1153   1.407       .  A
C1152      H1157   1.083       .  S
C1153      C1154   1.401       .  A
C1154      H1908   1.083       .  S
C1159      C1160   1.406       .  A
C1159      C1164   1.398       .  A
C1159      H1165   1.083       .  S
C1160      C1161   1.402       .  A
C1161      C1162   1.399       .  A
C1161      H1166   1.083       .  S
C1162      C1163   1.407       .  A
C1162      H1167   1.083       .  S
C1163      C1164   1.402       .  A
H1168      C1414   1.083       .  S
C1169      C1170   1.402       .  A
C1169      C1174   1.398       .  A
C1169      H1175   1.083       .  S
C1170      C1171   1.406       .  A
C1171      C1172   1.399       .  A
C1172      C1173   1.402       .  A
C1172      H1177   1.083       .  S
C1173      C1174   1.406       .  A
C1174      H1178   1.083       .  S
H1176      C1421   1.083       .  S
C1179      C1180   1.201       .  T
C1181      C1182   1.202       .  T
C1183      C1184   1.201       .  T
C1185      C1186   1.401       .  A
C1185      C1190   1.398       .  A
C1185      H1191   1.083       .  S
C1186      C1187   1.406       .  A
C1187      C1188   1.398       .  A
C1187      H1192   1.083       .  S
C1188      C1189   1.402       .  A
C1188      H1193   1.083       .  S
C1189      C1190   1.406       .  A
C1190      H1194   1.083       .  S
C1195      C1196   1.402       .  A
C1195      C1200   1.400       .  A
C1195      H1201   1.083       .  S
C1196      C1197   1.406       .  A
C1197      C1198   1.399       .  A
C1197      H1202   1.083       .  S
C1198      C1199   1.402       .  A
C1198      H1203   1.083       .  S
C1199      C1200   1.406       .  A
C1200      H1204   1.083       .  S
C1205      C1206   1.405       .  A
C1205      C1210   1.398       .  A
C1205      H1211   1.083       .  S
C1206      C1207   1.401       .  A
C1207      C1208   1.398       .  A
C1207      H1212   1.083       .  S
C1208      C1209   1.406       .  A
C1209      C1210   1.401       .  A
C1210      H1214   1.083       .  S
H1213      C1958   1.083       .  S
C1215      C1216   1.201       .  T
C1217      C1218   1.201       .  T
C1219      C1220   1.201       .  T
C1221      C1222   1.406       .  A
C1221      C1226   1.398       .  A
C1221      H1227   1.083       .  S
C1222      C1223   1.402       .  A
C1223      C1224   1.398       .  A
C1223      H1228   1.083       .  S
C1224      C1225   1.406       .  A
C1224      H1229   1.083       .  S
C1225      C1226   1.401       .  A
H1230      C1976   1.083       .  S
C1231      C1232   1.402       .  A
C1231      C1236   1.399       .  A
C1231      H1237   1.083       .  S
C1232      C1233   1.406       .  A
C1233      C1234   1.398       .  A
C1233      H1238   1.083       .  S
C1234      C1235   1.401       .  A
C1234      H1239   1.083       .  S
C1235      C1236   1.406       .  A
C1236      H1240   1.083       .  S
C1241      C1242   1.402       .  A
C1241      C1246   1.398       .  A
C1241      H1247   1.084       .  S
C1242      C1243   1.406       .  A
C1243      C1244   1.398       .  A
C1243      H1248   1.082       .  S
C1244      C1245   1.402       .  A
C1244      H1249   1.084       .  S
C1245      C1246   1.406       .  A
C1246      H1250   1.083       .  S
C1251      H1252   1.111       .  S
C1251      C1257   1.543       .  S
C1251      C1256   1.543       .  S
C1251      C1255   1.544       .  S
C1253      H1254   1.113       .  S
C1253      C1259   1.523       .  S
C1253      C1258   1.524       .  S
C1253      C1260   1.524       .  S
C1255      C1258   1.372       .  D
C1255      C1492   1.485       .  S
C1256      C1259   1.371       .  D
C1256      C1482   1.484       .  S
C1257      C1260   1.371       .  D
C1257      C1472   1.483       .  S
C1258      C1469   1.437       .  S
C1259      C1468   1.438       .  S
C1260      C1466   1.437       .  S
C1261      H1262   1.111       .  S
C1261      C1267   1.543       .  S
C1261      C1266   1.544       .  S
C1261      C1265   1.544       .  S
C1263      H1264   1.113       .  S
C1263      C1269   1.524       .  S
C1263      C1268   1.524       .  S
C1263      C1270   1.523       .  S
C1265      C1268   1.371       .  D
C1265      C1436   1.483       .  S
C1266      C1269   1.372       .  D
C1266      C1449   1.487       .  S
C1267      C1270   1.370       .  D
C1267      C1456   1.482       .  S
C1268      C1431   1.438       .  S
C1269      C1434   1.436       .  S
C1270      C1430   1.438       .  S
C1271      H1272   1.111       .  S
C1271      C1276   1.537       .  S
C1273      H1274   1.111       .  S
C1273      C2029   1.537       .  S
C1273      C1778   1.538       .  S
C1275      C1278   1.377       .  D
C1275      C1495   1.486       .  S
C1276      C1279   1.374       .  D
C1276      C1475   1.484       .  S
C1277      C1521   1.536   1_565  S
C1277      C1280   1.375       .  D
C1277      C1485   1.484       .  S
C1278      C1446   1.487       .  S
C1279      C1459   1.482       .  S
C1280      C1439   1.484       .  S
C1281      H1282   1.111       .  S
C1281      C1287   1.544       .  S
C1281      C1286   1.543       .  S
C1281      C1285   1.544       .  S
C1283      H1284   1.113       .  S
C1283      C1289   1.526       .  S
C1283      C1288   1.525       .  S
C1283      C1290   1.525       .  S
C1285      C1288   1.371       .  D
C1285      C1423   1.485       .  S
C1286      C1289   1.372       .  D
C1286      C1410   1.485       .  S
C1287      C1290   1.371       .  D
C1287      C1400   1.484       .  S
C1288      C1394   1.438       .  S
C1289      C1398   1.439       .  S
C1290      C1395   1.440       .  S
C1291      H1292   1.113       .  S
C1291      C1297   1.525       .  S
C1291      C1296   1.526       .  S
C1291      C1295   1.525       .  S
C1293      H1294   1.111       .  S
C1293      C1299   1.544       .  S
C1293      C1298   1.544       .  S
C1293      C1300   1.544       .  S
C1295      C1298   1.372       .  D
C1295      C1357   1.439       .  S
C1296      C1299   1.372       .  D
C1296      C1361   1.440       .  S
C1297      C1300   1.371       .  D
C1297      C1359   1.439       .  S
C1298      C1384   1.486       .  S
C1299      C1374   1.486       .  S
C1300      C1367   1.485       .  S
C1301      H1302   1.111       .  S
C1301      C1307   1.539       .  S
C1303      H1304   1.111       .  S
C1303      C1310   1.538       .  S
C1305      C2051   1.539       .  S
C1305      C1308   1.376       .  D
C1305      C1377   1.486       .  S
C1306      C1551   1.539   1_565  S
C1306      C1309   1.375       .  D
C1306      C1364   1.486       .  S
C1307      C1310   1.376       .  D
C1307      C1387   1.487       .  S
C1308      C2053   1.538       .  S
C1308      C1413   1.486       .  S
C1309      C1553   1.538   1_565  S
C1309      C1403   1.485       .  S
C1310      C1420   1.486       .  S
Zn1311     O1316   2.014   1_554  S
Zn1312     O1323   1.996       .  S
Zn1312     O1315   1.953       .  S
Zn1313     O1318   2.007       .  S
Zn1313     O1321   2.016   1_554  S
Zn1313     O1565   1.957   1_564  S
Zn1314     O1325   2.014   1_554  S
Zn1314     O1326   2.010       .  S
Zn1314     O1315   1.957   1_554  S
O1316      C1328   1.271       .  A
O1317     Zn1562   1.996   1_565  S
O1317      C1329   1.269       .  A
O1318      C1330   1.271       .  A
O1319      C1328   1.268       .  A
O1320     Zn2061   2.006       .  S
O1320      C1330   1.270       .  A
O1321      C1329   1.272       .  A
O1322     Zn2064   2.009       .  S
O1322      C1331   1.271       .  A
O1323      C1332   1.269       .  A
O1324      C1331   1.271       .  A
O1325      C1332   1.272       .  A
O1326      C1333   1.271       .  A
O1327      C1333   1.270       .  A
C1328      C1433   1.426       .  S
C1329      C1432   1.428       .  S
C1330      C1360   1.428       .  S
C1331      C1362   1.430       .  S
C1332      C1429   1.428       .  S
C1333      C1358   1.429       .  S
Zn1334     O1339   2.009       .  S
Zn1334     O1343   2.013       .  S
Zn1334     O1338   1.957       .  S
Zn1335     O1340   2.014       .  S
Zn1336     O1341   1.996       .  S
Zn1336     O1338   1.953       .  S
Zn1337     O1345   2.014       .  S
Zn1337     O1348   2.010       .  S
Zn1337     O1588   1.956   1_565  S
O1339      C1351   1.271       .  A
O1340      C1352   1.271       .  A
O1341      C1353   1.269       .  A
O1342      C1351   1.270       .  A
O1343      C1353   1.271       .  A
O1344      C1352   1.268       .  A
O1345      C1354   1.272       .  A
O1346     Zn2085   2.007       .  S
O1346      C1355   1.270       .  A
O1347     Zn1586   1.995   1_565  S
O1347      C1354   1.269       .  A
O1348      C1355   1.271       .  A
O1349      C1356   1.271       .  A
O1350     Zn2084   2.008       .  S
O1350      C1356   1.271       .  A
C1351      C1393   1.428       .  S
C1352      C1470   1.427       .  S
C1353      C1465   1.427       .  S
C1354      C1467   1.427       .  S
C1355      C1396   1.429       .  S
C1356      C1397   1.429       .  S
C1357      C1358   1.202       .  T
C1359      C1360   1.202       .  T
C1361      C1362   1.203       .  T
C1363      C1364   1.406       .  A
C1363      C1368   1.399       .  A
C1363      H1369   1.083       .  S
C1364      C1365   1.401       .  A
C1365      C1366   1.399       .  A
C1365      H1370   1.083       .  S
C1366      C1367   1.406       .  A
C1366      H1371   1.083       .  S
C1367      C1368   1.402       .  A
C1368      H1372   1.083       .  S
C1373      C1374   1.402       .  A
C1373      C1378   1.399       .  A
C1373      H1379   1.083       .  S
C1374      C1375   1.406       .  A
C1375      C1376   1.399       .  A
C1375      H1380   1.083       .  S
C1376      C1377   1.402       .  A
C1376      H1381   1.083       .  S
C1377      C1378   1.406       .  A
C1378      H1382   1.083       .  S
C1383      C1384   1.402       .  A
C1383      C1388   1.399       .  A
C1383      H1389   1.083       .  S
C1384      C1385   1.406       .  A
C1385      C1386   1.399       .  A
C1385      H1390   1.083       .  S
C1386      C1387   1.402       .  A
C1386      H1391   1.083       .  S
C1387      C1388   1.407       .  A
C1388      H1392   1.083       .  S
C1393      C1394   1.202       .  T
C1395      C1396   1.202       .  T
C1397      C1398   1.202       .  T
C1399      C1400   1.406       .  A
C1399      C1404   1.397       .  A
C1399      H1405   1.083       .  S
C1400      C1401   1.402       .  A
C1401      C1402   1.399       .  A
C1401      H1406   1.083       .  S
C1402      C1403   1.407       .  A
C1402      H1407   1.083       .  S
C1403      C1404   1.401       .  A
C1404      H2158   1.083       .  S
C1409      C1410   1.405       .  A
C1409      C1414   1.398       .  A
C1409      H1415   1.083       .  S
C1410      C1411   1.402       .  A
C1411      C1412   1.399       .  A
C1411      H1416   1.083       .  S
C1412      C1413   1.406       .  A
C1412      H1417   1.083       .  S
C1413      C1414   1.402       .  A
C1419      C1420   1.402       .  A
C1419      C1424   1.398       .  A
C1419      H1425   1.083       .  S
C1420      C1421   1.406       .  A
C1421      C1422   1.399       .  A
C1422      C1423   1.402       .  A
C1422      H1427   1.083       .  S
C1423      C1424   1.406       .  A
C1424      H1428   1.083       .  S
C1429      C1430   1.201       .  T
C1431      C1432   1.202       .  T
C1433      C1434   1.201       .  T
C1435      C1436   1.401       .  A
C1435      C1440   1.398       .  A
C1435      H1441   1.083       .  S
C1436      C1437   1.406       .  A
C1437      C1438   1.398       .  A
C1437      H1442   1.083       .  S
C1438      C1439   1.402       .  A
C1438      H1443   1.083   1_565  S
C1439      C1440   1.406       .  A
C1440      H1444   1.083       .  S
C1445      C1446   1.402       .  A
C1445      C1450   1.400       .  A
C1445      H1451   1.083       .  S
C1446      C1447   1.406       .  A
C1447      C1448   1.399       .  A
C1447      H1452   1.083       .  S
C1448      C1449   1.402       .  A
C1448      H1453   1.083       .  S
C1449      C1450   1.406       .  A
C1450      H1454   1.083       .  S
C1455      C1456   1.405       .  A
C1455      C1460   1.398       .  A
C1455      H1461   1.083       .  S
C1456      C1457   1.401       .  A
C1457      C1458   1.399       .  A
C1457      H1462   1.083       .  S
C1458      C1459   1.406       .  A
C1459      C1460   1.401       .  A
C1460      H1464   1.083       .  S
H1463      C2208   1.083       .  S
C1465      C1466   1.201       .  T
C1467      C1468   1.201       .  T
C1469      C1470   1.201       .  T
C1471      C1472   1.406       .  A
C1471      C1476   1.398       .  A
C1471      H1477   1.083       .  S
C1472      C1473   1.402       .  A
C1473      C1474   1.399       .  A
C1473      H1478   1.083       .  S
C1474      C1475   1.406       .  A
C1474      H1479   1.083       .  S
C1475      C1476   1.401       .  A
H1480      C2226   1.083       .  S
C1481      C1482   1.402       .  A
C1481      C1486   1.399       .  A
C1481      H1487   1.083       .  S
C1482      C1483   1.405       .  A
C1483      C1484   1.398       .  A
C1483      H1488   1.083       .  S
C1484      C1485   1.401       .  A
C1484      H1489   1.083       .  S
C1485      C1486   1.406       .  A
C1486      H1490   1.083       .  S
C1491      C1492   1.403       .  A
C1491      C1496   1.399       .  A
C1491      H1497   1.084       .  S
C1492      C1493   1.406       .  A
C1493      C1494   1.398       .  A
C1493      H1498   1.083       .  S
C1494      C1495   1.402       .  A
C1494      H1499   1.084   1_565  S
C1495      C1496   1.406       .  A
C1496      H1500   1.083       .  S
C1501      H1502   1.111       .  S
C1501      C1507   1.543       .  S
C1501      C1506   1.544       .  S
C1501      C1505   1.544       .  S
C1503      H1504   1.113       .  S
C1503      C1509   1.523       .  S
C1503      C1508   1.524       .  S
C1503      C1510   1.523       .  S
C1505      C1508   1.372       .  D
C1505      C1742   1.486       .  S
C1506      C1509   1.371       .  D
C1506      C1732   1.484       .  S
C1507      C1510   1.371       .  D
C1507      C1722   1.483       .  S
C1508      C1719   1.437       .  S
C1509      C1718   1.438       .  S
C1510      C1716   1.437       .  S
C1511      H1512   1.111       .  S
C1511      C1517   1.543       .  S
C1511      C1516   1.544       .  S
C1511      C1515   1.543       .  S
C1513      H1514   1.113       .  S
C1513      C1519   1.524       .  S
C1513      C1518   1.524       .  S
C1513      C1520   1.523       .  S
C1515      C1518   1.371       .  D
C1515      C1686   1.483       .  S
C1516      C1519   1.372       .  D
C1516      C1699   1.487       .  S
C1517      C1520   1.370       .  D
C1517      C1706   1.482       .  S
C1518      C1681   1.439       .  S
C1519      C1684   1.436       .  S
C1520      C1680   1.438       .  S
C1521      H1522   1.111       .  S
C1521      C1526   1.537       .  S
C1521      C2025   1.539   1_545  S
C1523      H1524   1.111       .  S
C1523      C2030   1.539   1_445  S
C1525      C1771   1.539       .  S
C1525      C1528   1.377       .  D
C1525      C1745   1.486       .  S
C1526      C1529   1.374       .  D
C1526      C1725   1.484       .  S
C1527      C1530   1.375       .  D
C1527      C1735   1.485       .  S
C1528      C1696   1.487       .  S
C1529      C1709   1.482       .  S
C1530      C1773   1.539   1_655  S
C1530      C1689   1.484       .  S
C1531      H1532   1.111       .  S
C1531      C1537   1.544       .  S
C1531      C1536   1.544       .  S
C1531      C1535   1.544       .  S
C1533      H1534   1.113       .  S
C1533      C1539   1.525       .  S
C1533      C1538   1.525       .  S
C1533      C1540   1.525       .  S
C1535      C1538   1.371       .  D
C1535      C1673   1.486       .  S
C1536      C1539   1.371       .  D
C1536      C1660   1.485       .  S
C1537      C1540   1.372       .  D
C1537      C1650   1.485       .  S
C1538      C1644   1.438       .  S
C1539      C1648   1.439       .  S
C1540      C1645   1.439       .  S
C1541      H1542   1.113       .  S
C1541      C1547   1.525       .  S
C1541      C1546   1.526       .  S
C1541      C1545   1.526       .  S
C1543      H1544   1.111       .  S
C1543      C1549   1.544       .  S
C1543      C1548   1.544       .  S
C1543      C1550   1.544       .  S
C1545      C1548   1.372       .  D
C1545      C1607   1.439       .  S
C1546      C1549   1.372       .  D
C1546      C1611   1.440       .  S
C1547      C1550   1.371       .  D
C1547      C1609   1.439       .  S
C1548      C1634   1.486       .  S
C1549      C1624   1.486       .  S
C1550      C1617   1.485       .  S
C1551      H1552   1.111       .  S
C1551      C1557   1.540       .  S
C1553      H1554   1.111       .  S
C1553      C1560   1.538       .  S
C1555      C1558   1.376       .  D
C1555      C1627   1.486       .  S
C1556      C1559   1.375       .  D
C1556      C1614   1.486       .  S
C1557      C1560   1.376       .  D
C1557      C1637   1.487       .  S
C1558      C1663   1.485       .  S
C1559      C1653   1.486       .  S
C1560      C1670   1.486       .  S
Zn1561     O1566   2.013   1_554  S
Zn1561     O1827   2.004       .  S
Zn1561     O1815   1.957   1_554  S
Zn1562     O2069   1.992   1_545  S
Zn1562     O1573   1.995       .  S
Zn1562     O1565   1.953       .  S
Zn1563     O1568   2.007       .  S
Zn1563     O1571   2.016   1_554  S
Zn1563     O1824   2.009       .  S
Zn1564     O1575   2.014   1_554  S
Zn1564     O1576   2.010       .  S
Zn1564     O1565   1.957   1_554  S
O1565     Zn2061   1.957   1_546  S
O1566      C1578   1.271       .  A
O1567      C1579   1.269       .  A
O1568      C1580   1.270       .  A
O1569     Zn1812   1.992       .  S
O1569      C1578   1.268       .  A
O1570      C1580   1.270       .  A
O1571      C1579   1.272       .  A
O1572      C1581   1.271       .  A
O1573      C1582   1.269       .  A
O1574     Zn2063   2.010   1_545  S
O1574      C1581   1.271       .  A
O1575      C1582   1.272       .  A
O1576      C1583   1.271       .  A
O1577     Zn2061   2.005   1_545  S
O1577      C1583   1.270       .  A
C1578      C1683   1.426       .  S
C1579      C1682   1.428       .  S
C1580      C1610   1.428       .  S
C1581      C1612   1.430       .  S
C1582      C1679   1.427       .  S
C1583      C1608   1.429       .  S
Zn1584     O1589   2.008       .  S
Zn1584     O1593   2.013       .  S
Zn1584     O1588   1.957       .  S
Zn1585     O1590   2.014       .  S
Zn1585     O1842   2.004       .  S
Zn1585     O1838   1.956       .  S
Zn1586     O1591   1.995       .  S
Zn1586     O2094   1.993   1_545  S
Zn1586     O1588   1.953       .  S
Zn1587     O1595   2.014       .  S
Zn1587     O1598   2.009       .  S
Zn1587     O1849   2.009       .  S
O1588     Zn2085   1.956   1_545  S
O1589      C1601   1.271       .  A
O1590      C1602   1.271       .  A
O1591      C1603   1.269       .  A
O1592     Zn2085   2.005   1_545  S
O1592      C1601   1.270       .  A
O1593      C1603   1.271       .  A
O1594     Zn1836   1.992       .  S
O1594      C1602   1.268       .  A
O1595      C1604   1.272       .  A
O1596      C1605   1.270       .  A
O1597      C1604   1.269       .  A
O1598      C1605   1.271       .  A
O1599     Zn2087   2.008   1_545  S
O1599      C1606   1.271       .  A
O1600      C1606   1.271       .  A
C1601      C1643   1.428       .  S
C1602      C1720   1.427       .  S
C1603      C1715   1.427       .  S
C1604      C1717   1.427       .  S
C1605      C1646   1.429       .  S
C1606      C1647   1.429       .  S
C1607      C1608   1.202       .  T
C1609      C1610   1.202       .  T
C1611      C1612   1.203       .  T
C1613      C1614   1.406       .  A
C1613      C1618   1.399       .  A
C1613      H1619   1.083       .  S
C1614      C1615   1.402       .  A
C1615      C1616   1.399       .  A
C1615      H1620   1.083       .  S
C1616      C1617   1.406       .  A
C1616      H1621   1.083       .  S
C1617      C1618   1.402       .  A
C1618      H1622   1.083       .  S
C1623      C1624   1.402       .  A
C1623      C1628   1.399       .  A
C1623      H1629   1.083       .  S
C1624      C1625   1.406       .  A
C1625      C1626   1.399       .  A
C1625      H1630   1.083       .  S
C1626      C1627   1.402       .  A
C1626      H1631   1.083   1_655  S
C1627      C1628   1.406       .  A
C1628      H1632   1.083       .  S
C1633      C1634   1.402       .  A
C1633      C1638   1.399       .  A
C1633      H1639   1.083       .  S
C1634      C1635   1.406       .  A
C1635      C1636   1.398       .  A
C1635      H1640   1.083       .  S
C1636      C1637   1.402       .  A
C1636      H1641   1.083   1_545  S
C1637      C1638   1.407       .  A
C1638      H1642   1.083       .  S
C1643      C1644   1.202       .  T
C1645      C1646   1.202       .  T
C1647      C1648   1.202       .  T
C1649      C1650   1.406       .  A
C1649      C1654   1.398       .  A
C1649      H1655   1.083       .  S
C1650      C1651   1.402       .  A
C1651      C1652   1.399       .  A
C1651      H1656   1.083       .  S
C1652      C1653   1.407       .  A
C1652      H1657   1.083       .  S
C1653      C1654   1.401       .  A
C1659      C1660   1.406       .  A
C1659      C1664   1.398       .  A
C1659      H1665   1.083       .  S
C1660      C1661   1.402       .  A
C1661      C1662   1.399       .  A
C1661      H1666   1.083       .  S
C1662      C1663   1.406       .  A
C1662      H1667   1.083       .  S
C1663      C1664   1.402       .  A
C1664      H2168   1.083   1_545  S
H1668      C1914   1.083       .  S
C1669      C1670   1.402       .  A
C1669      C1674   1.398       .  A
C1669      H1675   1.083       .  S
C1670      C1671   1.406       .  A
C1671      C1672   1.399       .  A
C1671      H2176   1.083       .  S
C1672      C1673   1.402       .  A
C1672      H1677   1.083       .  S
C1673      C1674   1.406       .  A
C1674      H1678   1.083       .  S
H1676      C1921   1.083       .  S
C1679      C1680   1.201       .  T
C1681      C1682   1.202       .  T
C1683      C1684   1.200       .  T
C1685      C1686   1.401       .  A
C1685      C1690   1.397       .  A
C1685      H1691   1.083       .  S
C1686      C1687   1.406       .  A
C1687      C1688   1.398       .  A
C1687      H1692   1.083       .  S
C1688      C1689   1.402       .  A
C1688      H1693   1.083       .  S
C1689      C1690   1.406       .  A
C1690      H1694   1.083       .  S
C1695      C1696   1.402       .  A
C1695      C1700   1.400       .  A
C1695      H1701   1.083       .  S
C1696      C1697   1.406       .  A
C1697      C1698   1.399       .  A
C1697      H1702   1.083       .  S
C1698      C1699   1.402       .  A
C1698      H1703   1.083       .  S
C1699      C1700   1.406       .  A
C1700      H1704   1.083       .  S
C1705      C1706   1.405       .  A
C1705      C1710   1.398       .  A
C1705      H1711   1.083       .  S
C1706      C1707   1.402       .  A
C1707      C1708   1.398       .  A
C1707      H1712   1.083       .  S
C1708      C1709   1.406       .  A
C1709      C1710   1.401       .  A
C1710      H1714   1.083       .  S
C1715      C1716   1.201       .  T
C1717      C1718   1.201       .  T
C1719      C1720   1.201       .  T
C1721      C1722   1.406       .  A
C1721      C1726   1.398       .  A
C1721      H1727   1.083       .  S
C1722      C1723   1.402       .  A
C1723      C1724   1.398       .  A
C1723      H1728   1.083       .  S
C1724      C1725   1.406       .  A
C1724      H1729   1.083       .  S
C1725      C1726   1.401       .  A
C1731      C1732   1.402       .  A
C1731      C1736   1.399       .  A
C1731      H1737   1.083       .  S
C1732      C1733   1.405       .  A
C1733      C1734   1.398       .  A
C1733      H1738   1.083       .  S
C1734      C1735   1.401       .  A
C1734      H1739   1.083       .  S
C1735      C1736   1.406       .  A
C1736      H1740   1.083       .  S
C1741      C1742   1.403       .  A
C1741      C1746   1.399       .  A
C1741      H1747   1.083       .  S
C1742      C1743   1.406       .  A
C1743      C1744   1.398       .  A
C1743      H1748   1.083       .  S
C1744      C1745   1.402       .  A
C1744      H1749   1.083       .  S
C1745      C1746   1.406       .  A
C1746      H1750   1.083       .  S
C1751      H1752   1.111       .  S
C1751      C1757   1.543       .  S
C1751      C1756   1.543       .  S
C1751      C1755   1.544       .  S
C1753      H1754   1.113       .  S
C1753      C1759   1.523       .  S
C1753      C1758   1.524       .  S
C1753      C1760   1.524       .  S
C1755      C1758   1.372       .  D
C1755      C1992   1.485       .  S
C1756      C1759   1.371       .  D
C1756      C1982   1.484       .  S
C1757      C1760   1.371       .  D
C1757      C1972   1.483       .  S
C1758      C1969   1.437       .  S
C1759      C1968   1.437       .  S
C1760      C1966   1.437       .  S
C1761      H1762   1.111       .  S
C1761      C1767   1.543       .  S
C1761      C1766   1.543       .  S
C1761      C1765   1.544       .  S
C1763      H1764   1.113       .  S
C1763      C1769   1.524       .  S
C1763      C1768   1.524       .  S
C1763      C1770   1.523       .  S
C1765      C1768   1.371       .  D
C1765      C1936   1.483       .  S
C1766      C1769   1.372       .  D
C1766      C1949   1.486       .  S
C1767      C1770   1.370       .  D
C1767      C1956   1.482       .  S
C1768      C1931   1.438       .  S
C1769      C1934   1.436       .  S
C1770      C1930   1.438       .  S
C1771      H1772   1.111       .  S
C1771      C1776   1.537       .  S
C1773      H1774   1.111       .  S
C1775      C2021   1.539       .  S
C1775      C1778   1.377       .  D
C1775      C1995   1.486       .  S
C1776      C1779   1.374       .  D
C1776      C1975   1.484       .  S
C1777      C1780   1.375       .  D
C1777      C1985   1.485       .  S
C1778      C1946   1.487       .  S
C1779      C1959   1.482       .  S
C1780      C2023   1.539   1_655  S
C1780      C1939   1.484       .  S
C1781      H1782   1.111       .  S
C1781      C1787   1.544       .  S
C1781      C1786   1.544       .  S
C1781      C1785   1.544       .  S
C1783      H1784   1.113       .  S
C1783      C1789   1.526       .  S
C1783      C1788   1.525       .  S
C1783      C1790   1.525       .  S
C1785      C1788   1.371       .  D
C1785      C1923   1.486       .  S
C1786      C1789   1.371       .  D
C1786      C1910   1.485       .  S
C1787      C1790   1.372       .  D
C1787      C1900   1.484       .  S
C1788      C1894   1.438       .  S
C1789      C1898   1.440       .  S
C1790      C1895   1.440       .  S
C1791      H1792   1.113       .  S
C1791      C1797   1.525       .  S
C1791      C1796   1.526       .  S
C1791      C1795   1.525       .  S
C1793      H1794   1.111       .  S
C1793      C1799   1.544       .  S
C1793      C1798   1.544       .  S
C1793      C1800   1.544       .  S
C1795      C1798   1.372       .  D
C1795      C1857   1.439       .  S
C1796      C1799   1.372       .  D
C1796      C1861   1.440       .  S
C1797      C1800   1.371       .  D
C1797      C1859   1.438       .  S
C1798      C1884   1.486       .  S
C1799      C1874   1.485       .  S
C1800      C1867   1.485       .  S
C1801      H1802   1.111       .  S
C1801      C1807   1.539       .  S
C1803      H1804   1.111       .  S
C1803      C1810   1.538       .  S
C1805      C1808   1.376       .  D
C1805      C1877   1.486       .  S
C1806      C1809   1.375       .  D
C1806      C1864   1.485       .  S
C1807      C1810   1.376       .  D
C1807      C1887   1.487       .  S
C1808      C1913   1.486       .  S
C1809      C1903   1.485       .  S
C1810      C1920   1.486       .  S
Zn1811     O1816   2.014   1_554  S
Zn1811     O2077   2.005       .  S
Zn1811     O2065   1.957   1_554  S
Zn1812     O1823   1.996       .  S
Zn1812     O1815   1.953       .  S
Zn1813     O1818   2.007       .  S
Zn1813     O1821   2.015   1_554  S
Zn1813     O2074   2.009       .  S
Zn1814     O1825   2.014   1_554  S
Zn1814     O1826   2.010       .  S
Zn1814     O1815   1.957   1_554  S
O1816      C1828   1.271       .  A
O1817      C1829   1.269       .  A
O1818      C1830   1.271       .  A
O1819     Zn2062   1.991       .  S
O1819      C1828   1.268       .  A
O1820      C1830   1.270       .  A
O1821      C1829   1.272       .  A
O1822      C1831   1.271       .  A
O1823      C1832   1.269       .  A
O1824      C1831   1.271       .  A
O1825      C1832   1.272       .  A
O1826      C1833   1.271       .  A
O1827      C1833   1.270       .  A
C1828      C1933   1.426       .  S
C1829      C1932   1.428       .  S
C1830      C1860   1.428       .  S
C1831      C1862   1.430       .  S
C1832      C1929   1.428       .  S
C1833      C1858   1.428       .  S
Zn1834     O1839   2.008       .  S
Zn1834     O1843   2.013       .  S
Zn1834     O1838   1.956       .  S
Zn1835     O1840   2.014       .  S
Zn1835     O2092   2.005       .  S
Zn1835     O2088   1.956       .  S
Zn1836     O1841   1.994       .  S
Zn1836     O1838   1.952       .  S
Zn1837     O1845   2.013       .  S
Zn1837     O1848   2.009       .  S
Zn1837     O2099   2.008       .  S
O1839      C1851   1.271       .  A
O1840      C1852   1.271       .  A
O1841      C1853   1.269       .  A
O1842      C1851   1.270       .  A
O1843      C1853   1.271       .  A
O1844     Zn2086   1.993       .  S
O1844      C1852   1.268       .  A
O1845      C1854   1.271       .  A
O1846      C1855   1.270       .  A
O1847      C1854   1.269       .  A
O1848      C1855   1.271       .  A
O1849      C1856   1.271       .  A
O1850      C1856   1.271       .  A
C1851      C1893   1.428       .  S
C1852      C1970   1.427       .  S
C1853      C1965   1.427       .  S
C1854      C1967   1.427       .  S
C1855      C1896   1.429       .  S
C1856      C1897   1.430       .  S
C1857      C1858   1.202       .  T
C1859      C1860   1.202       .  T
C1861      C1862   1.203       .  T
C1863      C1864   1.406       .  A
C1863      C1868   1.398       .  A
C1863      H1869   1.083       .  S
C1864      C1865   1.401       .  A
C1865      C1866   1.398       .  A
C1865      H1870   1.083       .  S
C1866      C1867   1.406       .  A
C1866      H1871   1.083       .  S
C1867      C1868   1.402       .  A
C1868      H1872   1.083       .  S
C1873      C1874   1.402       .  A
C1873      C1878   1.399       .  A
C1873      H1879   1.083       .  S
C1874      C1875   1.406       .  A
C1875      C1876   1.399       .  A
C1875      H1880   1.083       .  S
C1876      C1877   1.402       .  A
C1876      H1881   1.083   1_655  S
C1877      C1878   1.406       .  A
C1878      H1882   1.083       .  S
C1883      C1884   1.402       .  A
C1883      C1888   1.399       .  A
C1883      H1889   1.083       .  S
C1884      C1885   1.406       .  A
C1885      C1886   1.399       .  A
C1885      H1890   1.083       .  S
C1886      C1887   1.402       .  A
C1886      H1891   1.083       .  S
C1887      C1888   1.406       .  A
C1888      H1892   1.083       .  S
C1893      C1894   1.202       .  T
C1895      C1896   1.202       .  T
C1897      C1898   1.202       .  T
C1899      C1900   1.406       .  A
C1899      C1904   1.397       .  A
C1899      H1905   1.083       .  S
C1900      C1901   1.402       .  A
C1901      C1902   1.399       .  A
C1901      H1906   1.083       .  S
C1902      C1903   1.407       .  A
C1902      H1907   1.083       .  S
C1903      C1904   1.401       .  A
C1909      C1910   1.406       .  A
C1909      C1914   1.398       .  A
C1909      H1915   1.083       .  S
C1910      C1911   1.402       .  A
C1911      C1912   1.399       .  A
C1911      H1916   1.083       .  S
C1912      C1913   1.406       .  A
C1912      H1917   1.083       .  S
C1913      C1914   1.402       .  A
H1918      C2164   1.083       .  S
C1919      C1920   1.402       .  A
C1919      C1924   1.398       .  A
C1919      H1925   1.083       .  S
C1920      C1921   1.407       .  A
C1921      C1922   1.400       .  A
C1922      C1923   1.402       .  A
C1922      H1927   1.083       .  S
C1923      C1924   1.406       .  A
C1924      H1928   1.083       .  S
H1926      C2171   1.083       .  S
C1929      C1930   1.201       .  T
C1931      C1932   1.202       .  T
C1933      C1934   1.201       .  T
C1935      C1936   1.402       .  A
C1935      C1940   1.398       .  A
C1935      H1941   1.083       .  S
C1936      C1937   1.406       .  A
C1937      C1938   1.398       .  A
C1937      H1942   1.083       .  S
C1938      C1939   1.402       .  A
C1938      H1943   1.083       .  S
C1939      C1940   1.406       .  A
C1940      H1944   1.083       .  S
C1945      C1946   1.402       .  A
C1945      C1950   1.400       .  A
C1945      H1951   1.083       .  S
C1946      C1947   1.406       .  A
C1947      C1948   1.399       .  A
C1947      H1952   1.083       .  S
C1948      C1949   1.402       .  A
C1948      H1953   1.083       .  S
C1949      C1950   1.406       .  A
C1950      H1954   1.083       .  S
C1955      C1956   1.405       .  A
C1955      C1960   1.398       .  A
C1955      H1961   1.083       .  S
C1956      C1957   1.401       .  A
C1957      C1958   1.398       .  A
C1957      H1962   1.083       .  S
C1958      C1959   1.406       .  A
C1959      C1960   1.401       .  A
C1960      H1964   1.083       .  S
C1965      C1966   1.201       .  T
C1967      C1968   1.201       .  T
C1969      C1970   1.201       .  T
C1971      C1972   1.406       .  A
C1971      C1976   1.398       .  A
C1971      H1977   1.083       .  S
C1972      C1973   1.402       .  A
C1973      C1974   1.398       .  A
C1973      H1978   1.083       .  S
C1974      C1975   1.406       .  A
C1974      H1979   1.083       .  S
C1975      C1976   1.401       .  A
C1981      C1982   1.402       .  A
C1981      C1986   1.399       .  A
C1981      H1987   1.083       .  S
C1982      C1983   1.406       .  A
C1983      C1984   1.398       .  A
C1983      H1988   1.083       .  S
C1984      C1985   1.401       .  A
C1984      H1989   1.083       .  S
C1985      C1986   1.406       .  A
C1986      H1990   1.083       .  S
C1991      C1992   1.402       .  A
C1991      C1996   1.399       .  A
C1991      H1997   1.084       .  S
C1992      C1993   1.406       .  A
C1993      C1994   1.398       .  A
C1993      H1998   1.082       .  S
C1994      C1995   1.402       .  A
C1994      H1999   1.084       .  S
C1995      C1996   1.406       .  A
C1996      H2000   1.083       .  S
C2001      H2002   1.111       .  S
C2001      C2007   1.543       .  S
C2001      C2006   1.543       .  S
C2001      C2005   1.544       .  S
C2003      H2004   1.113       .  S
C2003      C2009   1.523       .  S
C2003      C2008   1.524       .  S
C2003      C2010   1.524       .  S
C2005      C2008   1.372       .  D
C2005      C2242   1.485       .  S
C2006      C2009   1.371       .  D
C2006      C2232   1.484       .  S
C2007      C2010   1.371       .  D
C2007      C2222   1.483       .  S
C2008      C2219   1.437       .  S
C2009      C2218   1.438       .  S
C2010      C2216   1.437       .  S
C2011      H2012   1.111       .  S
C2011      C2017   1.543       .  S
C2011      C2016   1.544       .  S
C2011      C2015   1.543       .  S
C2013      H2014   1.113       .  S
C2013      C2019   1.524       .  S
C2013      C2018   1.524       .  S
C2013      C2020   1.523       .  S
C2015      C2018   1.371       .  D
C2015      C2186   1.483       .  S
C2016      C2019   1.372       .  D
C2016      C2199   1.486       .  S
C2017      C2020   1.370       .  D
C2017      C2206   1.482       .  S
C2018      C2181   1.439       .  S
C2019      C2184   1.436       .  S
C2020      C2180   1.438       .  S
C2021      H2022   1.111       .  S
C2021      C2026   1.537       .  S
C2023      H2024   1.111       .  S
C2025      C2028   1.377       .  D
C2025      C2245   1.486       .  S
C2026      C2029   1.374       .  D
C2026      C2225   1.484       .  S
C2027      C2030   1.375       .  D
C2027      C2235   1.484       .  S
C2028      C2196   1.487       .  S
C2029      C2209   1.482       .  S
C2030      C2189   1.484       .  S
C2031      H2032   1.111       .  S
C2031      C2037   1.544       .  S
C2031      C2036   1.543       .  S
C2031      C2035   1.544       .  S
C2033      H2034   1.113       .  S
C2033      C2039   1.526       .  S
C2033      C2038   1.525       .  S
C2033      C2040   1.525       .  S
C2035      C2038   1.371       .  D
C2035      C2173   1.485       .  S
C2036      C2039   1.372       .  D
C2036      C2160   1.485       .  S
C2037      C2040   1.371       .  D
C2037      C2150   1.484       .  S
C2038      C2144   1.439       .  S
C2039      C2148   1.439       .  S
C2040      C2145   1.440       .  S
C2041      H2042   1.113       .  S
C2041      C2047   1.525       .  S
C2041      C2046   1.526       .  S
C2041      C2045   1.525       .  S
C2043      H2044   1.111       .  S
C2043      C2049   1.544       .  S
C2043      C2048   1.544       .  S
C2043      C2050   1.544       .  S
C2045      C2048   1.372       .  D
C2045      C2107   1.439       .  S
C2046      C2049   1.372       .  D
C2046      C2111   1.440       .  S
C2047      C2050   1.371       .  D
C2047      C2109   1.438       .  S
C2048      C2134   1.486       .  S
C2049      C2124   1.486       .  S
C2050      C2117   1.485       .  S
C2051      H2052   1.111       .  S
C2051      C2057   1.540       .  S
C2053      H2054   1.111       .  S
C2053      C2060   1.538       .  S
C2055      C2058   1.376       .  D
C2055      C2127   1.486       .  S
C2056      C2059   1.375       .  D
C2056      C2114   1.486       .  S
C2057      C2060   1.376       .  D
C2057      C2137   1.487       .  S
C2058      C2163   1.486       .  S
C2059      C2153   1.485       .  S
C2060      C2170   1.486       .  S
Zn2061     O2066   2.014   1_554  S
Zn2062     O2073   1.995       .  S
Zn2062     O2065   1.953       .  S
Zn2063     O2068   2.007       .  S
Zn2063     O2071   2.016   1_554  S
Zn2064     O2075   2.014   1_554  S
Zn2064     O2076   2.010       .  S
Zn2064     O2065   1.957   1_554  S
O2066      C2078   1.271       .  A
O2067      C2079   1.269       .  A
O2068      C2080   1.271       .  A
O2069      C2078   1.268       .  A
O2070      C2080   1.270       .  A
O2071      C2079   1.272       .  A
O2072      C2081   1.271       .  A
O2073      C2082   1.269       .  A
O2074      C2081   1.271       .  A
O2075      C2082   1.272       .  A
O2076      C2083   1.271       .  A
O2077      C2083   1.270       .  A
C2078      C2183   1.426       .  S
C2079      C2182   1.428       .  S
C2080      C2110   1.428       .  S
C2081      C2112   1.430       .  S
C2082      C2179   1.428       .  S
C2083      C2108   1.429       .  S
Zn2084     O2089   2.009       .  S
Zn2084     O2093   2.013       .  S
Zn2084     O2088   1.957       .  S
Zn2085     O2090   2.014       .  S
Zn2086     O2091   1.995       .  S
Zn2086     O2088   1.953       .  S
Zn2087     O2095   2.014       .  S
Zn2087     O2098   2.009       .  S
O2089      C2101   1.271       .  A
O2090      C2102   1.271       .  A
O2091      C2103   1.269       .  A
O2092      C2101   1.270       .  A
O2093      C2103   1.271       .  A
O2094      C2102   1.268       .  A
O2095      C2104   1.271       .  A
O2096      C2105   1.270       .  A
O2097      C2104   1.269       .  A
O2098      C2105   1.271       .  A
O2099      C2106   1.271       .  A
O2100      C2106   1.271       .  A
C2101      C2143   1.428       .  S
C2102      C2220   1.427       .  S
C2103      C2215   1.427       .  S
C2104      C2217   1.427       .  S
C2105      C2146   1.429       .  S
C2106      C2147   1.429       .  S
C2107      C2108   1.202       .  T
C2109      C2110   1.202       .  T
C2111      C2112   1.203       .  T
C2113      C2114   1.406       .  A
C2113      C2118   1.399       .  A
C2113      H2119   1.083       .  S
C2114      C2115   1.401       .  A
C2115      C2116   1.398       .  A
C2115      H2120   1.083       .  S
C2116      C2117   1.406       .  A
C2116      H2121   1.083       .  S
C2117      C2118   1.402       .  A
C2118      H2122   1.083       .  S
C2123      C2124   1.402       .  A
C2123      C2128   1.399       .  A
C2123      H2129   1.083       .  S
C2124      C2125   1.406       .  A
C2125      C2126   1.399       .  A
C2125      H2130   1.083       .  S
C2126      C2127   1.402       .  A
C2126      H2131   1.083   1_655  S
C2127      C2128   1.406       .  A
C2128      H2132   1.083       .  S
C2133      C2134   1.402       .  A
C2133      C2138   1.399       .  A
C2133      H2139   1.083       .  S
C2134      C2135   1.406       .  A
C2135      C2136   1.399       .  A
C2135      H2140   1.083       .  S
C2136      C2137   1.402       .  A
C2136      H2141   1.083       .  S
C2137      C2138   1.407       .  A
C2138      H2142   1.083       .  S
C2143      C2144   1.202       .  T
C2145      C2146   1.202       .  T
C2147      C2148   1.202       .  T
C2149      C2150   1.406       .  A
C2149      C2154   1.397       .  A
C2149      H2155   1.083       .  S
C2150      C2151   1.402       .  A
C2151      C2152   1.399       .  A
C2151      H2156   1.083       .  S
C2152      C2153   1.407       .  A
C2152      H2157   1.083       .  S
C2153      C2154   1.401       .  A
C2159      C2160   1.406       .  A
C2159      C2164   1.398       .  A
C2159      H2165   1.083       .  S
C2160      C2161   1.402       .  A
C2161      C2162   1.399       .  A
C2161      H2166   1.083       .  S
C2162      C2163   1.407       .  A
C2162      H2167   1.083       .  S
C2163      C2164   1.402       .  A
C2169      C2170   1.402       .  A
C2169      C2174   1.398       .  A
C2169      H2175   1.083       .  S
C2170      C2171   1.406       .  A
C2171      C2172   1.399       .  A
C2172      C2173   1.402       .  A
C2172      H2177   1.083       .  S
C2173      C2174   1.406       .  A
C2174      H2178   1.083       .  S
C2179      C2180   1.201       .  T
C2181      C2182   1.202       .  T
C2183      C2184   1.201       .  T
C2185      C2186   1.402       .  A
C2185      C2190   1.398       .  A
C2185      H2191   1.083       .  S
C2186      C2187   1.406       .  A
C2187      C2188   1.398       .  A
C2187      H2192   1.083       .  S
C2188      C2189   1.402       .  A
C2188      H2193   1.083   1_565  S
C2189      C2190   1.406       .  A
C2190      H2194   1.083       .  S
C2195      C2196   1.402       .  A
C2195      C2200   1.400       .  A
C2195      H2201   1.083       .  S
C2196      C2197   1.406       .  A
C2197      C2198   1.399       .  A
C2197      H2202   1.083       .  S
C2198      C2199   1.402       .  A
C2198      H2203   1.083       .  S
C2199      C2200   1.406       .  A
C2200      H2204   1.083       .  S
C2205      C2206   1.405       .  A
C2205      C2210   1.398       .  A
C2205      H2211   1.083       .  S
C2206      C2207   1.402       .  A
C2207      C2208   1.398       .  A
C2207      H2212   1.083       .  S
C2208      C2209   1.406       .  A
C2209      C2210   1.401       .  A
C2210      H2214   1.083       .  S
C2215      C2216   1.201       .  T
C2217      C2218   1.201       .  T
C2219      C2220   1.201       .  T
C2221      C2222   1.406       .  A
C2221      C2226   1.398       .  A
C2221      H2227   1.083       .  S
C2222      C2223   1.402       .  A
C2223      C2224   1.399       .  A
C2223      H2228   1.083       .  S
C2224      C2225   1.406       .  A
C2224      H2229   1.083       .  S
C2225      C2226   1.401       .  A
C2231      C2232   1.402       .  A
C2231      C2236   1.399       .  A
C2231      H2237   1.083       .  S
C2232      C2233   1.405       .  A
C2233      C2234   1.398       .  A
C2233      H2238   1.083       .  S
C2234      C2235   1.401       .  A
C2234      H2239   1.083       .  S
C2235      C2236   1.406       .  A
C2236      H2240   1.083       .  S
C2241      C2242   1.403       .  A
C2241      C2246   1.399       .  A
C2241      H2247   1.084       .  S
C2242      C2243   1.406       .  A
C2243      C2244   1.398       .  A
C2243      H2248   1.082       .  S
C2244      C2245   1.402       .  A
C2244      H2249   1.084   1_565  S
C2245      C2246   1.406       .  A
C2246      H2250   1.083       .  S
