geometry optimzed in LAMMPS
_audit_creation_date              2020-12-01 
_audit_creation_method            'lammps2cif' 
_symmetry_space_group_name_H-M    'P1' 
_symmetry_Int_Tables_number       1 
_symmetry_cell_setting            triclinic 
loop_ 
_symmetry_equiv_pos_as_xyz 
  x,y,z 
_cell_length_a                    30.8204336 
_cell_length_b                    30.877894966093603 
_cell_length_c                    33.59598425432265 
_cell_angle_alpha                 89.98593432175731 
_cell_angle_beta                  90.1137907468739 
_cell_angle_gamma                 120.93424622346059 
loop_ 
_atom_site_label 
_atom_site_type_symbol 
_atom_site_fract_x 
_atom_site_fract_y 
_atom_site_fract_z 
_atom_site_charge 
O1          O  0.34943408  0.74071724  0.19854389    -0.86000
O2          O  0.25182817  0.67062430  0.21972007    -0.83000
C3          C  0.24033099  0.63463551  0.19581921     0.97500
O4          O  0.25976750  0.60759757  0.19977581    -0.83000
O5          O  0.32900086  0.58029492  0.21848887    -0.85700
C6          C  0.36562261  0.60509005  0.19490465     1.02000
O7          O  0.39395082  0.65221237  0.19890322    -0.78400
O8          O  0.42209999  0.75008302  0.21696596    -0.78600
C9          C  0.39649623  0.76087877  0.19384595     1.02000
O10         O  0.37628308  0.76573021  0.28036714    -0.85900
O11         O  0.28122018  0.68919263  0.30180837    -0.83000
C12         C  0.24475676  0.64470983  0.30658869     0.97500
O13         O  0.23857215  0.60980892  0.28318063    -0.83000
O14         O  0.31451119  0.59198030  0.30159150    -0.85600
C15         C  0.35880137  0.60021696  0.30542087     1.02000
O16         O  0.39334713  0.62969626  0.28172310    -0.78500
O17         O  0.41331727  0.72517427  0.30047455    -0.78600
C18         C  0.40572915  0.76141596  0.30413290     1.02000
Cr19       Cr  0.31624363  0.71298229  0.25013391     1.93700
Cr20       Cr  0.28905019  0.60252506  0.25071180     1.93200
Cr21       Cr  0.40055982  0.68774410  0.24961314     1.39100
O22         O  0.33533780  0.66773009  0.25023824    -1.23700
O23         O  0.73925966  0.35448893  0.30065339    -0.86000
O24         O  0.66911751  0.25638683  0.28202489    -0.83000
C25         C  0.63273095  0.24456122  0.30564873     0.97500
O26         O  0.60547599  0.26380235  0.30160992    -0.83000
O27         O  0.57827890  0.33301359  0.28213649    -0.85700
C28         C  0.60375571  0.37000402  0.30528279     1.02000
O29         O  0.65083698  0.39819239  0.30064998    -0.78400
O30         O  0.74839698  0.42624450  0.28065768    -0.78600
C31         C  0.75908874  0.40151679  0.30470893     1.02000
O32         O  0.76164809  0.37799516  0.21734686    -0.85900
O33         O  0.68444984  0.28259395  0.19878278    -0.83000
C34         C  0.63991922  0.24563500  0.19528343     0.97500
O35         O  0.60585660  0.24032389  0.21920252    -0.83000
O36         O  0.58738073  0.31585023  0.19922991    -0.85600
C37         C  0.59524364  0.35989462  0.19494841     1.02000
O38         O  0.62529615  0.39500063  0.21811679    -0.78500
O39         O  0.72053120  0.41499207  0.19812518    -0.78600
C40         C  0.75638593  0.40692631  0.19369095     1.02000
Cr41       Cr  0.71015111  0.31942700  0.24970532     1.93700
Cr42       Cr  0.59941206  0.29195385  0.25044669     1.93200
Cr43       Cr  0.68466396  0.40342419  0.24939616     1.39100
O44         O  0.66473555  0.33828724  0.24975100    -1.23700
N45         N  0.92374015  0.51288007  0.49947814    -0.37200
N46         N  0.00182746  0.55230395  0.43820499    -0.57800
N47         N  0.07813872  0.58467738  0.50035384    -0.37200
N48         N  0.00023663  0.55056153  0.06160488    -0.57800
C49         C  0.89529359  0.50565216  0.46668607     0.26400
C50         C  0.89462014  0.50668734  0.03159236     0.26400
C51         C  0.10818692  0.60679221  0.46836261     0.26400
C52         C  0.10726354  0.60410893  0.03323437     0.26400
C53         C  0.96077951  0.52558728  0.41469686     0.35000
C54         C  0.04272592  0.56559365  0.41514192     0.35000
C55         C  0.95860377  0.52445509  0.08452070     0.35000
C56         C  0.04030478  0.56112227  0.08492202     0.35000
C57         C  0.84750741  0.49484661  0.47800705    -0.22500
C58         C  0.84704308  0.49541630  0.01894957    -0.22500
C59         C  0.15709005  0.64053853  0.48115654    -0.22500
C60         C  0.15647107  0.63890744  0.02207765    -0.22500
C61         C  0.97574443  0.52302119  0.37629850    -0.23600
C62         C  0.02759093  0.54870310  0.37650203    -0.23500
C63         C  0.97250677  0.51987959  0.12287209    -0.23600
C64         C  0.02416568  0.54277045  0.12304423    -0.23500
C65         C  0.90995975  0.50464975  0.42698508    -0.18900
C66         C  0.90824159  0.50579765  0.07172770    -0.18900
C67         C  0.09147669  0.58872479  0.07286773    -0.18900
C68         C  0.09364984  0.59394240  0.42808553    -0.18900
H69         H  0.81590069  0.48641572  0.45875838     0.14000
H70         H  0.81483075  0.48720655  0.03721554     0.14000
H71         H  0.19013382  0.66331477  0.46298743     0.14000
H72         H  0.18879753  0.66030694  0.04140561     0.14000
H73         H  0.95189957  0.50464149  0.35069662     0.12300
H74         H  0.05131615  0.55405222  0.35105780     0.12300
H75         H  0.94809974  0.50187990  0.14818792     0.12300
H76         H  0.04716957  0.54562071  0.14843075     0.12300
H77         H  0.95818103  0.51461708  0.49985594     0.25600
H78         H  0.04186776  0.55345626  0.49976897     0.25600
N79         N  0.48522649  0.41121365  0.49973808    -0.37200
N80         N  0.44953962  0.45250160  0.43916697    -0.57800
N81         N  0.40894038  0.48872719  0.49988315    -0.37200
N82         N  0.44699081  0.44986469  0.06044011    -0.57800
C83         C  0.51156855  0.41062173  0.46775425     0.26400
C84         C  0.50818973  0.40677060  0.03252732     0.26400
C85         C  0.40709612  0.51365260  0.46742855     0.26400
C86         C  0.40830816  0.51451511  0.03225100     0.26400
C87         C  0.46460092  0.42716537  0.41569639     0.35000
C88         C  0.42214954  0.46531082  0.41586586     0.35000
C89         C  0.45906977  0.42180811  0.08359453     0.35000
C90         C  0.42105517  0.46446095  0.08372481     0.35000
C91         C  0.55106219  0.40464231  0.48033257    -0.22500
C92         C  0.54896904  0.40227246  0.02120814    -0.22500
C93         C  0.40456774  0.55532574  0.47926737    -0.22500
C94         C  0.40517816  0.55579189  0.02017844    -0.22500
C95         C  0.44639276  0.42347628  0.37733741    -0.23600
C96         C  0.41902877  0.44723886  0.37753300    -0.23500
C97         C  0.44000979  0.41788081  0.12163235    -0.23600
C98         C  0.41617919  0.44519138  0.12177976    -0.23500
C99         C  0.49923371  0.41263435  0.42751101    -0.18900
C100        C  0.49263591  0.40559441  0.07231401    -0.18900
C101        C  0.40772462  0.50011229  0.07229512    -0.18900
C102        C  0.40613074  0.49885562  0.42746164    -0.18900
H103        H  0.57848851  0.40204467  0.46202340     0.14000
H104        H  0.57477629  0.39797370  0.04036966     0.14000
H105        H  0.40264014  0.58271928  0.46041678     0.14000
H106        H  0.40333440  0.58336960  0.03881701     0.14000
H107        H  0.45320673  0.40663721  0.35167175     0.12300
H108        H  0.40068794  0.45240062  0.35199837     0.12300
H109        H  0.44452768  0.39896471  0.14702968     0.12300
H110        H  0.39875069  0.45147745  0.14730799     0.12300
H111        H  0.45083092  0.40988647  0.49914098     0.25600
H112        H  0.40574507  0.45350252  0.49986574     0.25600
N113        N  0.58398288  0.08151147  0.00046612    -0.37200
N114        N  0.54705689  0.00402006  0.43932382    -0.57800
N115        N  0.51066546  0.92594342  0.99983760    -0.37200
N116        N  0.54452696  0.00343486  0.06101153    -0.57800
C117        C  0.58571505  0.10858201  0.46815349     0.26400
C118        C  0.58669851  0.10856737  0.03304727     0.26400
C119        C  0.48820734  0.89771755  0.46703450     0.26400
C120        C  0.48518220  0.89766801  0.03182254     0.26400
C121        C  0.57196559  0.04544108  0.41606965     0.35000
C122        C  0.53514072  0.96384612  0.41585196     0.35000
C123        C  0.57115778  0.04432408  0.08453961     0.35000
C124        C  0.53060405  0.96259136  0.08419671     0.35000
C125        C  0.59047646  0.15374122  0.48039877    -0.22500
C126        C  0.59082612  0.15360726  0.02130832    -0.22500
C127        C  0.44856766  0.85066511  0.47833436    -0.22500
C128        C  0.44673153  0.85058391  0.01921256    -0.22500
C129        C  0.57600008  0.03151735  0.37766350    -0.23600
C130        C  0.55299278  0.97986334  0.37759777    -0.23500
C131        C  0.57466501  0.02934823  0.12275165    -0.23600
C132        C  0.54848809  0.97753142  0.12263029    -0.23500
C133        C  0.58590941  0.09482660  0.42799040    -0.18900
C134        C  0.58735222  0.09445424  0.07304283    -0.18900
C135        C  0.49751977  0.91225361  0.07208166    -0.18900
C136        C  0.50323925  0.91287630  0.42722831    -0.18900
H137        H  0.59363134  0.18390699  0.46189298     0.14000
H138        H  0.59380179  0.18340584  0.04019966     0.14000
H139        H  0.42340823  0.81956605  0.45915703     0.14000
H140        H  0.42017259  0.81923934  0.03748901     0.14000
H141        H  0.59253411  0.05582064  0.35206656     0.12300
H142        H  0.54840368  0.95663558  0.35196676     0.12300
H143        H  0.59288306  0.05318200  0.14836953     0.12300
H144        H  0.54249546  0.95365062  0.14811227     0.12300
H145        H  0.58611526  0.04899197  0.00033774     0.25600
H146        H  0.54437056  0.96056240  0.00046388     0.25600
C147        C  0.57916643  0.16297358  0.16351114    -0.14000
C148        C  0.62719949  0.20718472  0.16399161     0.08200
C149        C  0.66240367  0.21399348  0.13442402    -0.14000
C150        C  0.64970873  0.17724333  0.10502377    -0.14000
C151        C  0.60163946  0.13321548  0.10468260     0.08200
C152        C  0.56646934  0.12653349  0.13406688    -0.14000
H153        H  0.55121321  0.15648805  0.18588970     0.12200
H154        H  0.69961394  0.24774254  0.13392336     0.12200
H155        H  0.67724131  0.18313945  0.08242802     0.12200
H156        H  0.52904187  0.09304603  0.13409203     0.12200
C157        C  0.56176987  0.14496513  0.38456811    -0.14000
C158        C  0.59821607  0.13334904  0.39661812     0.08200
C159        C  0.64613177  0.15838930  0.37881501    -0.14000
C160        C  0.65739287  0.19450124  0.34914963    -0.14000
C161        C  0.62109573  0.20663772  0.33724266     0.08200
C162        C  0.57321441  0.18157378  0.35537888    -0.14000
H163        H  0.52454568  0.12579629  0.39797796     0.12200
H164        H  0.67463286  0.14976903  0.38781282     0.12200
H165        H  0.69461480  0.21322361  0.33575648     0.12200
H166        H  0.54436681  0.18981066  0.34664141     0.12200
C167        C  0.80275238  0.40082898  0.36743393    -0.14000
C168        C  0.79623107  0.42818093  0.33693880     0.08200
C169        C  0.82606232  0.48123381  0.33723476    -0.14000
C170        C  0.86250553  0.50630536  0.36686613    -0.14000
C171        C  0.86947014  0.47874802  0.39673905     0.08200
C172        C  0.83898768  0.42595592  0.39714317    -0.14000
H173        H  0.78007846  0.35999324  0.36819765     0.12200
H174        H  0.82187409  0.50333497  0.31417327     0.12200
H175        H  0.88578934  0.54710423  0.36625064     0.12200
H176        H  0.84394735  0.40422874  0.42011062     0.12200
C177        C  0.81780889  0.40828586  0.14485235    -0.14000
C178        C  0.79348117  0.43201170  0.16131507     0.08200
C179        C  0.80588293  0.47993843  0.14721399    -0.14000
C180        C  0.84299265  0.50416651  0.11782957    -0.14000
C181        C  0.86722703  0.48022261  0.10160747     0.08200
C182        C  0.85388437  0.43192254  0.11497098    -0.14000
H183        H  0.80874495  0.37126634  0.15502087     0.12200
H184        H  0.78785090  0.49911495  0.15963282     0.12200
H185        H  0.85309819  0.54159435  0.10794714     0.12200
H186        H  0.87228670  0.41300137  0.10274092     0.12200
C187        C  0.57592142  0.41959522  0.16000330    -0.14000
C188        C  0.56830229  0.37077010  0.16355722     0.08200
C189        C  0.53476476  0.33293105  0.13704231    -0.14000
C190        C  0.50964620  0.34389864  0.10753843    -0.14000
C191        C  0.51753692  0.39274661  0.10423810     0.08200
C192        C  0.55083729  0.43043202  0.13064352    -0.14000
H193        H  0.60143823  0.44962021  0.17987797     0.12200
H194        H  0.52809037  0.29497190  0.13900047     0.12200
H195        H  0.48422902  0.31445711  0.08719786     0.12200
H196        H  0.55767464  0.46843563  0.12825334     0.12200
C197        C  0.59995758  0.42912626  0.35438442    -0.14000
C198        C  0.57754339  0.38086995  0.33706771     0.08200
C199        C  0.52918487  0.34313561  0.34982728    -0.14000
C200        C  0.50378854  0.35340697  0.37932496    -0.14000
C201        C  0.52605773  0.40168164  0.39617577     0.08200
C202        C  0.57421060  0.43952822  0.38352411    -0.14000
H203        H  0.63702457  0.45898004  0.34499546     0.12200
H204        H  0.51110811  0.30555518  0.33715389     0.12200
H205        H  0.46670536  0.32383076  0.38894737     0.12200
H206        H  0.59182772  0.47700166  0.39636957     0.12200
C207        C  0.17746379  0.65046369  0.16157662    -0.14000
C208        C  0.20294544  0.62358198  0.16384024     0.08200
C209        C  0.19220928  0.58600044  0.13533626    -0.14000
C210        C  0.15656278  0.57536055  0.10538541    -0.14000
C211        C  0.13093925  0.60190240  0.10357166     0.08200
C212        C  0.14164969  0.63959656  0.13171974    -0.14000
H213        H  0.18486199  0.67961133  0.18307956     0.12200
H214        H  0.21125710  0.56473694  0.13621893     0.12200
H215        H  0.14844300  0.54600427  0.08386588     0.12200
H216        H  0.12197092  0.66024758  0.13067579     0.12200
C217        C  0.19828446  0.66996705  0.35354442    -0.14000
C218        C  0.20781508  0.63299835  0.33885048     0.08200
C219        C  0.18055637  0.58386422  0.35444690    -0.14000
C220        C  0.14433857  0.57179028  0.38401049    -0.14000
C221        C  0.13403776  0.60833378  0.39800506     0.08200
C222        C  0.16122361  0.65755352  0.38267298    -0.13000
H223        H  0.21858265  0.70803512  0.34182105     0.12200
H224        H  0.18736734  0.55476605  0.34381682     0.12200
H225        H  0.12366682  0.53366430  0.39561551     0.12200
H226        H  0.15352650  0.68611171  0.39313557     0.12200
C227        C  0.43457117  0.57472090  0.11665644    -0.14000
C228        C  0.39665059  0.52665466  0.10390991     0.08200
C229        C  0.34838671  0.50439730  0.12095601    -0.14000
C230        C  0.33826089  0.52983870  0.15061795    -0.14000
C231        C  0.37609952  0.57825647  0.16328082     0.08200
C232        C  0.42430325  0.60049034  0.14584525    -0.14000
H233        H  0.47203796  0.59234638  0.10375344     0.12200
H234        H  0.31870795  0.46734944  0.11133200     0.12200
H235        H  0.30072010  0.51184328  0.16340473     0.12200
H236        H  0.45427553  0.63755347  0.15514264     0.12200
C237        C  0.33362921  0.54305850  0.36491860    -0.14000
C238        C  0.37043111  0.57417960  0.33688611     0.08200
C239        C  0.41871956  0.58000391  0.33889382    -0.14000
C240        C  0.42999246  0.55528153  0.36818622    -0.14000
C241        C  0.39320234  0.52404834  0.39593763     0.08200
C242        C  0.34498141  0.51821105  0.39425952    -0.14000
H243        H  0.29614780  0.53796429  0.36420863     0.12200
H244        H  0.44790253  0.60367310  0.31778387     0.12200
H245        H  0.46756737  0.56061328  0.36935481     0.12200
H246        H  0.31628254  0.49448785  0.41568620     0.12200
C247        C  0.47155687  0.81332536  0.15015780    -0.14000
C248        C  0.42222925  0.79892873  0.16217821     0.08200
C249        C  0.39802649  0.82209621  0.14427046    -0.14000
C250        C  0.42280222  0.85921754  0.11525130    -0.14000
C251        C  0.47185033  0.87327010  0.10325287     0.08200
C252        C  0.49606387  0.85004018  0.12070609    -0.14000
H253        H  0.49106806  0.79603459  0.16337683     0.12200
H254        H  0.36019140  0.81203627  0.15308575     0.12200
H255        H  0.40372232  0.87693228  0.10197802     0.12200
H256        H  0.53393767  0.86054908  0.11161783     0.12200
C257        C  0.46622683  0.79826344  0.36206837    -0.14000
C258        C  0.43178120  0.80010927  0.33556728     0.08200
C259        C  0.42179969  0.83955153  0.33936834    -0.14000
C260        C  0.44532935  0.87605500  0.36896263    -0.14000
C261        C  0.47958220  0.87420175  0.39533306     0.08200
C262        C  0.48991888  0.83506363  0.39179447    -0.14000
H263        H  0.47469866  0.76838159  0.35991500     0.12200
H264        H  0.39545482  0.84214045  0.31957436     0.12200
H265        H  0.43661406  0.90575251  0.37150655     0.12200
H266        H  0.51615789  0.83302539  0.41209131     0.12200
O267        O  0.34944469  0.74072722  0.69854125    -0.86000
O268        O  0.25183902  0.67063555  0.71971231    -0.83000
C269        C  0.24033918  0.63464594  0.69581135     0.97500
O270        O  0.25977123  0.60760392  0.69976968    -0.83000
O271        O  0.32899937  0.58029406  0.71848398    -0.85700
C272        C  0.36562182  0.60508539  0.69489996     1.02000
O273        O  0.39395344  0.65220774  0.69889631    -0.78400
O274        O  0.42210926  0.75008304  0.71695521    -0.78600
C275        C  0.39650568  0.76088485  0.69384019     1.02000
O276        O  0.37629263  0.76573268  0.78036544    -0.85900
O277        O  0.28122912  0.68919855  0.80180377    -0.83000
C278        C  0.24476332  0.64471719  0.80658340     0.97500
O279        O  0.23857686  0.60981622  0.78317471    -0.83000
O280        O  0.31451563  0.59198268  0.80158614    -0.85600
C281        C  0.35880646  0.60021989  0.80541559     1.02000
O282        O  0.39335167  0.62969790  0.78171686    -0.78500
O283        O  0.41333335  0.72518020  0.80046571    -0.78600
C284        C  0.40574037  0.76141825  0.80412917     1.02000
Cr285      Cr  0.31625361  0.71298886  0.75012970     1.93700
Cr286      Cr  0.28905384  0.60252964  0.75070630     1.93200
Cr287      Cr  0.40056722  0.68774505  0.74960483     1.39100
O288        O  0.33534520  0.66773437  0.75023210    -1.23700
O289        O  0.73925475  0.35449614  0.80065790    -0.86000
O290        O  0.66911666  0.25639349  0.78202477    -0.83000
C291        C  0.63272606  0.24456207  0.80564591     0.97500
O292        O  0.60546955  0.26380146  0.80160586    -0.83000
O293        O  0.57827597  0.33301567  0.78213905    -0.85700
C294        C  0.60375148  0.37000598  0.80528572     1.02000
O295        O  0.65083199  0.39820055  0.80065219    -0.78400
O296        O  0.74839508  0.42625376  0.78066439    -0.78600
C297        C  0.75908564  0.40152402  0.80471477     1.02000
O298        O  0.76164903  0.37800812  0.71735237    -0.85900
O299        O  0.68445614  0.28260766  0.69878282    -0.83000
C300        C  0.63992561  0.24564975  0.69527970     0.97500
O301        O  0.60586030  0.24033783  0.71919609    -0.83000
O302        O  0.58738625  0.31586610  0.69922871    -0.85600
C303        C  0.59524883  0.35991052  0.69494867     1.02000
O304        O  0.62529707  0.39501415  0.71812028    -0.78500
O305        O  0.72053071  0.41500273  0.69812942    -0.78600
C306        C  0.75638373  0.40693478  0.69369365     1.02000
Cr307      Cr  0.71015124  0.31943735  0.74970805     1.93700
Cr308      Cr  0.59941193  0.29196216  0.75044447     1.93200
Cr309      Cr  0.68466287  0.40343444  0.74940028     1.39100
O310        O  0.66473490  0.33829679  0.74975346    -1.23700
N311        N  0.92374796  0.51288059  0.99948198    -0.37200
N312        N  0.00183711  0.55230594  0.93820726    -0.57800
N313        N  0.07814841  0.58467549  0.00035439    -0.37200
N314        N  0.00022866  0.55055807  0.56160270    -0.57800
C315        C  0.89529661  0.50563464  0.96668948     0.26400
C316        C  0.89461660  0.50669660  0.53158883     0.26400
C317        C  0.10819572  0.60680098  0.96836421     0.26400
C318        C  0.10725603  0.60411008  0.53323295     0.26400
C319        C  0.96078893  0.52558265  0.91470038     0.35000
C320        C  0.04273638  0.56559897  0.91514378     0.35000
C321        C  0.95859480  0.52444126  0.58451572     0.35000
C322        C  0.04029769  0.56112117  0.58492010     0.35000
C323        C  0.84750268  0.49480627  0.97801034    -0.22500
C324        C  0.84704721  0.49545130  0.51894638    -0.22500
C325        C  0.15709597  0.64055424  0.98115992    -0.22500
C326        C  0.15646591  0.63889844  0.52207429    -0.22500
C327        C  0.97575470  0.52301515  0.87630261    -0.23600
C328        C  0.02760140  0.54870345  0.87650496    -0.23500
C329        C  0.97249803  0.51986008  0.62286584    -0.23600
C330        C  0.02415836  0.54276083  0.62304008    -0.23500
C331        C  0.90996764  0.50463908  0.92698833    -0.18900
C332        C  0.90823303  0.50579010  0.57172293    -0.18900
C333        C  0.09147003  0.58872943  0.57286696    -0.18900
C334        C  0.09366069  0.59395388  0.92808642    -0.18900
H335        H  0.81589059  0.48635710  0.95876186     0.14000
H336        H  0.81483860  0.48725452  0.53721191     0.14000
H337        H  0.19013825  0.66334045  0.96299205     0.14000
H338        H  0.18879492  0.66029334  0.54140085     0.14000
H339        H  0.95190996  0.50462962  0.85070186     0.12300
H340        H  0.05132657  0.55405277  0.85106067     0.12300
H341        H  0.94809101  0.50185396  0.64818042     0.12300
H342        H  0.04716340  0.54561207  0.64842613     0.12300
H343        H  0.95819798  0.51463949  0.99986020     0.25600
H344        H  0.04188169  0.55344832  0.99976854     0.25600
N345        N  0.48520962  0.41119118  0.99974239    -0.37200
N346        N  0.44955091  0.45250833  0.93916714    -0.57800
N347        N  0.40896810  0.48875104  0.99988216    -0.37200
N348        N  0.44698059  0.44985597  0.56043649    -0.57800
C349        C  0.51153730  0.41057477  0.96775777     0.26400
C350        C  0.50821713  0.40681123  0.53252370     0.26400
C351        C  0.40712065  0.51367313  0.96742635     0.26400
C352        C  0.40828302  0.51449159  0.53225273     0.26400
C353        C  0.46460325  0.42716371  0.91569775     0.35000
C354        C  0.42217156  0.46532891  0.91586367     0.35000
C355        C  0.45906221  0.42179953  0.58358791     0.35000
C356        C  0.42103333  0.46443761  0.58372131     0.35000
C357        C  0.55100863  0.40455852  0.98033396    -0.22500
C358        C  0.54902079  0.40235378  0.52120664    -0.22500
C359        C  0.40458750  0.55534396  0.97926333    -0.22500
C360        C  0.40515836  0.55577180  0.52018261    -0.22500
C361        C  0.44640158  0.42348141  0.87733758    -0.23600
C362        C  0.41905078  0.44725779  0.87753050    -0.23500
C363        C  0.43998929  0.41785475  0.62162329    -0.23600
C364        C  0.41615017  0.44515744  0.62177278    -0.23500
C365        C  0.49921559  0.41260795  0.92751489    -0.18900
C366        C  0.49264780  0.40561029  0.57230872    -0.18900
C367        C  0.40770082  0.50008761  0.57229557    -0.18900
C368        C  0.40615420  0.49887469  0.92745972    -0.18900
H369        H  0.57842022  0.40193827  0.96202230     0.14000
H370        H  0.57484103  0.39807747  0.54036954     0.14000
H371        H  0.40265454  0.58273356  0.96041151     0.14000
H372        H  0.40332060  0.58335124  0.53882353     0.14000
H373        H  0.45320853  0.40663300  0.85167439     0.12300
H374        H  0.40071527  0.45242527  0.85199495     0.12300
H375        H  0.44450662  0.39893519  0.64701842     0.12300
H376        H  0.39871141  0.45143235  0.64729974     0.12300
H377        H  0.45083066  0.40989759  0.99914611     0.25600
H378        H  0.40577366  0.45352665  0.99986618     0.25600
N379        N  0.58398871  0.08151761  0.50046488    -0.37200
N380        N  0.54704834  0.00401612  0.93932623    -0.57800
N381        N  0.51067235  0.92594930  0.49983325    -0.37200
N382        N  0.54452699  0.00344411  0.56100846    -0.57800
C383        C  0.58571171  0.10857872  0.96815557     0.26400
C384        C  0.58670268  0.10857495  0.53304468     0.26400
C385        C  0.48819877  0.89771263  0.96703900     0.26400
C386        C  0.48518729  0.89767469  0.53181788     0.26400
C387        C  0.57195605  0.04543660  0.91607082     0.35000
C388        C  0.53512966  0.96384075  0.91585511     0.35000
C389        C  0.57115732  0.04433262  0.58453778     0.35000
C390        C  0.53060055  0.96259977  0.58419344     0.35000
C391        C  0.59047753  0.15373911  0.98040321    -0.22500
C392        C  0.59082592  0.15361227  0.52130377    -0.22500
C393        C  0.44855958  0.85066002  0.97833861    -0.22500
C394        C  0.44673796  0.85059000  0.51920817    -0.22500
C395        C  0.57598619  0.03151037  0.87766440    -0.23600
C396        C  0.55297718  0.97985598  0.87759983    -0.23500
C397        C  0.57465994  0.02935496  0.62275027    -0.23600
C398        C  0.54848064  0.97753818  0.62262801    -0.23500
C399        C  0.58590343  0.09482386  0.92799133    -0.18900
C400        C  0.58735673  0.09446411  0.57304069    -0.18900
C401        C  0.49752018  0.91226187  0.57207699    -0.18900
C402        C  0.50323123  0.91287102  0.92723319    -0.18900
H403        H  0.59363612  0.18390783  0.96189926     0.14000
H404        H  0.59379817  0.18341051  0.54019362     0.14000
H405        H  0.42340094  0.81956107  0.95916080     0.14000
H406        H  0.42017743  0.81924673  0.53748501     0.14000
H407        H  0.59251827  0.05581193  0.85206635     0.12300
H408        H  0.54838423  0.95662640  0.85196911     0.12300
H409        H  0.59287738  0.05318738  0.64836888     0.12300
H410        H  0.54248528  0.95365586  0.64810956     0.12300
H411        H  0.58612396  0.04899983  0.50033748     0.25600
H412        H  0.54437634  0.96056915  0.50046073     0.25600
C413        C  0.57917929  0.16298293  0.66351326    -0.14000
C414        C  0.62720764  0.20720003  0.66398738     0.08200
C415        C  0.66240683  0.21401405  0.63441360    -0.14000
C416        C  0.64971131  0.17726239  0.60501401    -0.14000
C417        C  0.60164629  0.13322788  0.60467960     0.08200
C418        C  0.56648128  0.12654221  0.63406961    -0.14000
H419        H  0.55122992  0.15649284  0.68589670     0.12200
H420        H  0.69961320  0.24776813  0.63390761     0.12200
H421        H  0.67724011  0.18316260  0.58241357     0.12200
H422        H  0.52905664  0.09305091  0.63410007     0.12200
C423        C  0.56177342  0.14498341  0.88458235    -0.14000
C424        C  0.59821049  0.13334760  0.89661827     0.08200
C425        C  0.64611666  0.15836786  0.87879841    -0.14000
C426        C  0.65737714  0.19447896  0.84913186    -0.14000
C427        C  0.62108971  0.20663578  0.83723948     0.08200
C428        C  0.57321778  0.18159131  0.85539185    -0.14000
H429        H  0.52455625  0.12583046  0.89800424     0.12200
H430        H  0.67461101  0.14973253  0.88778401     0.12200
H431        H  0.69459168  0.21318477  0.83572638     0.12200
H432        H  0.54437708  0.18984363  0.84666692     0.12200
C433        C  0.80275103  0.40082823  0.86743619    -0.14000
C434        C  0.79623036  0.42818464  0.83694431     0.08200
C435        C  0.82606755  0.48123708  0.83724154    -0.14000
C436        C  0.86251595  0.50630345  0.86687067    -0.14000
C437        C  0.86947978  0.47874134  0.89674005     0.08200
C438        C  0.83899165  0.42594979  0.89714285    -0.14000
H439        H  0.78007259  0.35999274  0.86819911     0.12200
H440        H  0.82188000  0.50334164  0.81418267     0.12200
H441        H  0.88580317  0.54710212  0.86625694     0.12200
H442        H  0.84394951  0.40421888  0.92010806     0.12200
C443        C  0.81781112  0.40829043  0.64486106    -0.14000
C444        C  0.79347318  0.43201219  0.66131263     0.08200
C445        C  0.80585919  0.47992768  0.64719529    -0.14000
C446        C  0.84296779  0.50415195  0.61780973    -0.14000
C447        C  0.86721602  0.48021469  0.60160116     0.08200
C448        C  0.85388458  0.43192240  0.61497751    -0.14000
H449        H  0.80875809  0.37127844  0.65504086     0.12200
H450        H  0.78781736  0.49910013  0.65960342     0.12200
H451        H  0.85306277  0.54157290  0.60791657     0.12200
H452        H  0.87229580  0.41300504  0.60275718     0.12200
C453        C  0.57590397  0.41960418  0.66001808    -0.14000
C454        C  0.56831175  0.37078786  0.66355505     0.08200
C455        C  0.53480486  0.33295820  0.63702048    -0.14000
C456        C  0.50968861  0.34392575  0.60751482    -0.14000
C457        C  0.51755042  0.39276406  0.60423233     0.08200
C458        C  0.55082160  0.43044083  0.63065650    -0.14000
H459        H  0.60139693  0.44962180  0.67990822     0.12200
H460        H  0.52815287  0.29500644  0.63896454     0.12200
H461        H  0.48429473  0.31449132  0.58715955     0.12200
H462        H  0.55763688  0.46843744  0.62828013     0.12200
C463        C  0.59989769  0.42915059  0.85432743    -0.14000
C464        C  0.57753785  0.38086412  0.83707275     0.08200
C465        C  0.52923043  0.34309068  0.84989485    -0.14000
C466        C  0.50382953  0.35335453  0.87939381    -0.14000
C467        C  0.52604212  0.40165956  0.89618038     0.08200
C468        C  0.57414452  0.43954377  0.88346727    -0.14000
H469        H  0.63692388  0.45903312  0.84488759     0.12200
H470        H  0.51119958  0.30548677  0.83726980     0.12200
H471        H  0.46678689  0.32374946  0.88906629     0.12200
H472        H  0.59171725  0.47704039  0.89626408     0.12200
C473        C  0.17749963  0.65050265  0.66155047    -0.14000
C474        C  0.20295331  0.62359426  0.66383148     0.08200
C475        C  0.19218478  0.58598408  0.63534626    -0.14000
C476        C  0.15653194  0.57533991  0.60539945    -0.14000
C477        C  0.13093434  0.60190655  0.60357003     0.08200
C478        C  0.14167865  0.63963106  0.63169762    -0.14000
H479        H  0.18492449  0.67967446  0.68303724     0.12200
H480        H  0.21121026  0.56469951  0.63624162     0.12200
H481        H  0.14838734  0.54596150  0.58389501     0.12200
H482        H  0.12202238  0.66030364  0.63064045     0.12200
C483        C  0.19829934  0.66997944  0.85354527    -0.14000
C484        C  0.20782240  0.63300753  0.83884609     0.08200
C485        C  0.18055875  0.58387245  0.85443990    -0.14000
C486        C  0.14434429  0.57180066  0.88400600    -0.14000
C487        C  0.13404984  0.60834671  0.89800564     0.08200
C488        C  0.16124080  0.65756794  0.88267614    -0.13000
H489        H  0.21860172  0.70804862  0.84182430     0.12200
H490        H  0.18736357  0.55477163  0.84380610     0.12200
H491        H  0.12366900  0.53367357  0.89560853     0.12200
H492        H  0.15354918  0.68612866  0.89314203     0.12200
C493        C  0.43457538  0.57467268  0.61668838    -0.14000
C494        C  0.39663365  0.52663184  0.60391232     0.08200
C495        C  0.34835484  0.50440519  0.62092709    -0.14000
C496        C  0.33823445  0.52985249  0.65058754    -0.14000
C497        C  0.37609434  0.57824598  0.66327907     0.08200
C498        C  0.42431379  0.60044865  0.64587568    -0.14000
H499        H  0.47205363  0.59227397  0.60380911     0.12200
H500        H  0.31865995  0.46737767  0.61127903     0.12200
H501        H  0.30068148  0.51188242  0.66334966     0.12200
H502        H  0.45430191  0.63749163  0.65519727     0.12200
C503        C  0.33363279  0.54304404  0.86490414    -0.14000
C504        C  0.37043980  0.57418618  0.83688250     0.08200
C505        C  0.41873874  0.58003622  0.83890267    -0.14000
C506        C  0.43001642  0.55531765  0.86819539    -0.14000
C507        C  0.39322147  0.52406403  0.89593575     0.08200
C508        C  0.34499036  0.51820153  0.89424625    -0.14000
H509        H  0.29614317  0.53792905  0.86418445     0.12200
H510        H  0.44792659  0.60372277  0.81780210     0.12200
H511        H  0.46759857  0.56066823  0.86937291     0.12200
H512        H  0.31628743  0.49446177  0.91566443     0.12200
C513        C  0.47155287  0.81331380  0.65013501    -0.14000
C514        C  0.42223675  0.79893669  0.66217351     0.08200
C515        C  0.39804266  0.82212385  0.64428377    -0.14000
C516        C  0.42281585  0.85924492  0.61526393    -0.14000
C517        C  0.47185241  0.87327779  0.60324757     0.08200
C518        C  0.49605701  0.85002854  0.62068279    -0.14000
H519        H  0.49105658  0.79600716  0.66333981     0.12200
H520        H  0.36021665  0.81207918  0.65311369     0.12200
H521        H  0.40374321  0.87697496  0.60200447     0.12200
H522        H  0.53392181  0.86052237  0.61158014     0.12200
C523        C  0.46626837  0.79829031  0.86204681    -0.14000
C524        C  0.43178587  0.80010697  0.83556864     0.08200
C525        C  0.42176019  0.83951667  0.83939711    -0.14000
C526        C  0.44528539  0.87601874  0.86899298    -0.14000
C527        C  0.47957579  0.87419546  0.89533910     0.08200
C528        C  0.48995455  0.83508844  0.89177588    -0.14000
H529        H  0.47477505  0.76843427  0.85987218     0.12200
H530        H  0.39538440  0.84208130  0.81962292     0.12200
H531        H  0.43653819  0.90569211  0.87155680     0.12200
H532        H  0.51622362  0.83307432  0.91205425     0.12200
loop_ 
_geom_bond_atom_site_label_1 
_geom_bond_atom_site_label_2 
_geom_bond_distance 
_geom_bond_site_symmetry_2 
_ccdc_geom_bond_type 
O1          Cr19   1.972       .  S
O1            C9   1.260       .  A
O2          Cr19   2.005       .  S
O2            C3   1.265       .  A
C3            O4   1.260       .  A
C3          C208   1.480       .  S
O4          Cr20   1.976       .  S
O5          Cr20   2.008       .  S
O5            C6   1.266       .  A
C6            O7   1.261       .  A
C6          C231   1.482       .  S
O7          Cr21   1.979       .  S
O8          Cr21   2.009       .  S
O8            C9   1.267       .  A
C9          C248   1.479       .  S
O10         Cr19   2.001       .  S
O10          C18   1.265       .  A
O11         Cr19   1.977       .  S
O11          C12   1.261       .  A
C12          O13   1.267       .  A
C12         C218   1.478       .  S
O13         Cr20   2.007       .  S
O14         Cr20   1.975       .  S
O14          C15   1.260       .  A
C15          O16   1.266       .  A
C15         C238   1.479       .  S
O16         Cr21   2.004       .  S
O17         Cr21   1.985       .  S
O17          C18   1.261       .  A
C18         C258   1.483       .  S
Cr19         O22   1.773       .  S
Cr20         O22   1.771       .  S
Cr21         O22   1.774       .  S
O23         Cr41   1.976       .  S
O23          C31   1.260       .  A
O24         Cr41   2.010       .  S
O24          C25   1.266       .  A
C25          O26   1.261       .  A
C25         C161   1.482       .  S
O26         Cr42   1.977       .  S
O27         Cr42   2.004       .  S
O27          C28   1.266       .  A
C28          O29   1.261       .  A
C28         C198   1.479       .  S
O29         Cr43   1.978       .  S
O30         Cr43   2.007       .  S
O30          C31   1.266       .  A
C31         C168   1.479       .  S
O32         Cr41   2.007       .  S
O32          C40   1.267       .  A
O33         Cr41   1.979       .  S
O33          C34   1.261       .  A
C34          O35   1.265       .  A
C34         C148   1.480       .  S
O35         Cr42   2.003       .  S
O36         Cr42   1.980       .  S
O36          C37   1.261       .  A
C37          O38   1.267       .  A
C37         C188   1.482       .  S
O38         Cr43   2.006       .  S
O39         Cr43   1.979       .  S
O39          C40   1.261       .  A
C40         C178   1.478       .  S
Cr41         O44   1.771       .  S
Cr42         O44   1.772       .  S
Cr43         O44   1.776       .  S
N45          H77   1.035       .  S
N45          C49   1.352       .  A
N45         C316   1.354       .  A
N46          C53   1.352   1_455  A
N46          C54   1.353       .  A
N47          H78   1.035       .  S
N47          C51   1.354       .  A
N47         C318   1.352       .  A
N48          C55   1.352   1_455  A
N48          C56   1.352       .  A
C49          C57   1.386       .  A
C49          C65   1.415       .  A
C50         N311   1.354   1_554  A
C50          C66   1.416       .  A
C50          C58   1.387       .  A
C51          C59   1.388       .  A
C51          C68   1.416       .  A
C52         N313   1.352       .  A
C52          C67   1.414       .  A
C52          C60   1.386       .  A
C53          C65   1.415       .  A
C53          C61   1.387       .  A
C54          C68   1.416       .  A
C54          C62   1.387       .  A
C55          C63   1.387       .  A
C55          C66   1.416       .  A
C56          C64   1.386       .  A
C56          C67   1.414       .  A
C57         C324   1.376       .  A
C57          H69   1.082       .  S
C58         C323   1.376   1_554  A
C58          H70   1.082       .  S
C59         C326   1.375       .  A
C59          H71   1.082       .  S
C60         C325   1.375   1_554  A
C60          H72   1.082       .  S
C61          C62   1.371   1_655  A
C61          H73   1.082       .  S
C62          H74   1.082       .  S
C63          C64   1.370   1_655  A
C63          H75   1.082       .  S
C64          H76   1.082       .  S
C65         C171   1.483       .  S
C66         C181   1.486       .  S
C67         C211   1.482       .  S
C68         C221   1.485       .  S
N79         H111   1.040       .  S
N79          C83   1.354       .  A
N79         C350   1.353       .  A
N80          C87   1.351       .  A
N80          C88   1.350       .  A
N81         H112   1.040       .  S
N81          C85   1.352       .  A
N81         C352   1.354       .  A
N82          C89   1.351       .  A
N82          C90   1.352       .  A
C83          C91   1.387       .  A
C83          C99   1.414       .  A
C84         N345   1.353   1_554  A
C84         C100   1.415       .  A
C84          C92   1.387       .  A
C85          C93   1.387       .  A
C85         C102   1.414       .  A
C86         N347   1.354   1_554  A
C86         C101   1.414       .  A
C86          C94   1.387       .  A
C87          C99   1.410       .  A
C87          C95   1.386       .  A
C88         C102   1.412       .  A
C88          C96   1.387       .  A
C89          C97   1.387       .  A
C89         C100   1.414       .  A
C90          C98   1.386       .  A
C90         C101   1.411       .  A
C91         C358   1.375       .  A
C91         H103   1.082       .  S
C92         C357   1.375   1_554  A
C92         H104   1.082       .  S
C93         C360   1.375       .  A
C93         H105   1.082       .  S
C94         C359   1.375   1_554  A
C94         H106   1.082       .  S
C95          C96   1.373       .  A
C95         H107   1.082       .  S
C96         H108   1.082       .  S
C97          C98   1.374       .  A
C97         H109   1.082       .  S
C98         H110   1.082       .  S
C99         C201   1.482       .  S
C100        C191   1.485       .  S
C101        C228   1.485       .  S
C102        C241   1.484       .  S
N113        H145   1.039       .  S
N113        C118   1.353       .  A
N113        C383   1.354   1_554  A
N114        C121   1.352       .  A
N114        C122   1.351   1_545  A
N115        H146   1.039   1_556  S
N115        C120   1.353   1_556  A
N115        C385   1.353       .  A
N116        C123   1.351       .  A
N116        C124   1.351   1_545  A
C117        N379   1.354       .  A
C117        C125   1.387       .  A
C117        C133   1.416       .  A
C118        C134   1.416       .  A
C118        C126   1.387       .  A
C119        N381   1.353       .  A
C119        C127   1.387       .  A
C119        C136   1.415       .  A
C120        C135   1.414       .  A
C120        C128   1.387       .  A
C121        C133   1.413       .  A
C121        C129   1.386       .  A
C122        C136   1.414       .  A
C122        C130   1.386       .  A
C123        C131   1.387       .  A
C123        C134   1.414       .  A
C124        C132   1.386       .  A
C124        C135   1.411       .  A
C125        C392   1.374       .  A
C125        H137   1.082       .  S
C126        C391   1.374   1_554  A
C126        H138   1.082       .  S
C127        C394   1.374       .  A
C127        H139   1.082       .  S
C128        C393   1.374   1_554  A
C128        H140   1.082       .  S
C129        C130   1.373   1_545  A
C129        H141   1.082       .  S
C130        H142   1.082       .  S
C131        C132   1.372   1_545  A
C131        H143   1.082       .  S
C132        H144   1.082       .  S
C133        C158   1.486       .  S
C134        C151   1.488       .  S
C135        C251   1.482       .  S
C136        C261   1.486       .  S
C147        C148   1.406       .  A
C147        C152   1.394       .  A
C147        H153   1.083       .  S
C148        C149   1.406       .  A
C149        C150   1.400       .  A
C149        H154   1.083       .  S
C150        C151   1.404       .  A
C150        H155   1.083       .  S
C151        C152   1.402       .  A
C152        H156   1.083       .  S
C157        C158   1.402       .  A
C157        C162   1.398       .  A
C157        H163   1.083       .  S
C158        C159   1.402       .  A
C159        C160   1.400       .  A
C159        H164   1.083       .  S
C160        C161   1.408       .  A
C160        H165   1.083       .  S
C161        C162   1.406       .  A
C162        H166   1.083       .  S
C167        C168   1.406       .  A
C167        C172   1.397       .  A
C167        H173   1.083       .  S
C168        C169   1.407       .  A
C169        C170   1.398       .  A
C169        H174   1.083       .  S
C170        C171   1.401       .  A
C170        H175   1.083       .  S
C171        C172   1.402       .  A
C172        H176   1.083       .  S
C177        C178   1.404       .  A
C177        C182   1.395       .  A
C177        H183   1.083       .  S
C178        C179   1.407       .  A
C179        C180   1.402       .  A
C179        H184   1.083       .  S
C180        C181   1.404       .  A
C180        H185   1.083       .  S
C181        C182   1.402       .  A
C182        H186   1.083       .  S
C187        C188   1.407       .  A
C187        C192   1.395       .  A
C187        H193   1.083       .  S
C188        C189   1.408       .  A
C189        C190   1.401       .  A
C189        H194   1.083       .  S
C190        C191   1.403       .  A
C190        H195   1.083       .  S
C191        C192   1.401       .  A
C192        H196   1.083       .  S
C197        C198   1.406       .  A
C197        C202   1.399       .  A
C197        H203   1.083       .  S
C198        C199   1.407       .  A
C199        C200   1.398       .  A
C199        H204   1.083       .  S
C200        C201   1.400       .  A
C200        H205   1.083       .  S
C201        C202   1.403       .  A
C202        H206   1.083       .  S
C207        C208   1.408       .  A
C207        C212   1.397       .  A
C207        H213   1.083       .  S
C208        C209   1.406       .  A
C209        C210   1.397       .  A
C209        H214   1.083       .  S
C210        C211   1.402       .  A
C210        H215   1.083       .  S
C211        C212   1.401       .  A
C212        H216   1.083       .  S
C217        C218   1.407       .  A
C217        C222   1.401       .  A
C217        H223   1.083       .  S
C218        C219   1.405       .  A
C219        C220   1.396       .  A
C219        H224   1.083       .  S
C220        C221   1.402       .  A
C220        H225   1.083       .  S
C221        C222   1.403       .  A
C222        H226   1.083       .  S
C227        C228   1.403       .  A
C227        C232   1.398       .  A
C227        H233   1.083       .  S
C228        C229   1.402       .  A
C229        C230   1.400       .  A
C229        H234   1.083       .  S
C230        C231   1.408       .  A
C230        H235   1.083       .  S
C231        C232   1.406       .  A
C232        H236   1.083       .  S
C237        C238   1.407       .  A
C237        C242   1.399       .  A
C237        H243   1.083       .  S
C238        C239   1.406       .  A
C239        C240   1.394       .  A
C239        H244   1.083       .  S
C240        C241   1.402       .  A
C240        H245   1.083       .  S
C241        C242   1.403       .  A
C242        H246   1.083       .  S
C247        C248   1.407       .  A
C247        C252   1.399       .  A
C247        H253   1.083       .  S
C248        C249   1.406       .  A
C249        C250   1.396       .  A
C249        H254   1.083       .  S
C250        C251   1.401       .  A
C250        H255   1.083       .  S
C251        C252   1.401       .  A
C252        H256   1.083       .  S
C257        C258   1.408       .  A
C257        C262   1.402       .  A
C257        H263   1.083       .  S
C258        C259   1.407       .  A
C259        C260   1.394       .  A
C259        H264   1.083       .  S
C260        C261   1.400       .  A
C260        H265   1.083       .  S
C261        C262   1.404       .  A
C262        H266   1.083       .  S
O267       Cr285   1.972       .  S
O267        C275   1.260       .  A
O268       Cr285   2.005       .  S
O268        C269   1.265       .  A
C269        O270   1.260       .  A
C269        C474   1.480       .  S
O270       Cr286   1.977       .  S
O271       Cr286   2.008       .  S
O271        C272   1.266       .  A
C272        O273   1.261       .  A
C272        C497   1.482       .  S
O273       Cr287   1.979       .  S
O274       Cr287   2.009       .  S
O274        C275   1.267       .  A
C275        C514   1.479       .  S
O276       Cr285   2.001       .  S
O276        C284   1.265       .  A
O277       Cr285   1.977       .  S
O277        C278   1.261       .  A
C278        O279   1.267       .  A
C278        C484   1.478       .  S
O279       Cr286   2.007       .  S
O280       Cr286   1.975       .  S
O280        C281   1.260       .  A
C281        O282   1.266       .  A
C281        C504   1.479       .  S
O282       Cr287   2.004       .  S
O283       Cr287   1.985       .  S
O283        C284   1.261       .  A
C284        C524   1.483       .  S
Cr285       O288   1.773       .  S
Cr286       O288   1.771       .  S
Cr287       O288   1.774       .  S
O289       Cr307   1.976       .  S
O289        C297   1.260       .  A
O290       Cr307   2.010       .  S
O290        C291   1.266       .  A
C291        O292   1.261       .  A
C291        C427   1.482       .  S
O292       Cr308   1.977       .  S
O293       Cr308   2.004       .  S
O293        C294   1.266       .  A
C294        O295   1.261       .  A
C294        C464   1.479       .  S
O295       Cr309   1.978       .  S
O296       Cr309   2.007       .  S
O296        C297   1.266       .  A
C297        C434   1.479       .  S
O298       Cr307   2.007       .  S
O298        C306   1.267       .  A
O299       Cr307   1.979       .  S
O299        C300   1.261       .  A
C300        O301   1.265       .  A
C300        C414   1.480       .  S
O301       Cr308   2.002       .  S
O302       Cr308   1.980       .  S
O302        C303   1.261       .  A
C303        O304   1.267       .  A
C303        C454   1.482       .  S
O304       Cr309   2.006       .  S
O305       Cr309   1.979       .  S
O305        C306   1.261       .  A
C306        C444   1.478       .  S
Cr307       O310   1.771       .  S
Cr308       O310   1.772       .  S
Cr309       O310   1.776       .  S
N311        H343   1.035       .  S
N311        C315   1.352       .  A
N312        C319   1.352   1_455  A
N312        C320   1.353       .  A
N313        H344   1.035   1_554  S
N313        C317   1.354   1_554  A
N314        C321   1.352   1_455  A
N314        C322   1.352       .  A
C315        C323   1.386       .  A
C315        C331   1.415       .  A
C316        C332   1.416       .  A
C316        C324   1.387       .  A
C317        C325   1.388       .  A
C317        C334   1.416       .  A
C318        C333   1.414       .  A
C318        C326   1.386       .  A
C319        C331   1.415       .  A
C319        C327   1.387       .  A
C320        C334   1.416       .  A
C320        C328   1.387       .  A
C321        C329   1.387       .  A
C321        C332   1.416       .  A
C322        C330   1.386       .  A
C322        C333   1.414       .  A
C323        H335   1.082       .  S
C324        H336   1.082       .  S
C325        H337   1.082       .  S
C326        H338   1.082       .  S
C327        C328   1.371   1_655  A
C327        H339   1.082       .  S
C328        H340   1.082       .  S
C329        C330   1.370   1_655  A
C329        H341   1.082       .  S
C330        H342   1.082       .  S
C331        C437   1.483       .  S
C332        C447   1.486       .  S
C333        C477   1.482       .  S
C334        C487   1.485       .  S
N345        H377   1.040       .  S
N345        C349   1.354       .  A
N346        C353   1.351       .  A
N346        C354   1.350       .  A
N347        H378   1.040       .  S
N347        C351   1.352       .  A
N348        C355   1.351       .  A
N348        C356   1.352       .  A
C349        C357   1.387       .  A
C349        C365   1.414       .  A
C350        C366   1.415       .  A
C350        C358   1.387       .  A
C351        C359   1.387       .  A
C351        C368   1.414       .  A
C352        C367   1.414       .  A
C352        C360   1.387       .  A
C353        C365   1.410       .  A
C353        C361   1.386       .  A
C354        C368   1.412       .  A
C354        C362   1.387       .  A
C355        C363   1.387       .  A
C355        C366   1.414       .  A
C356        C364   1.385       .  A
C356        C367   1.411       .  A
C357        H369   1.082       .  S
C358        H370   1.082       .  S
C359        H371   1.082       .  S
C360        H372   1.082       .  S
C361        C362   1.373       .  A
C361        H373   1.082       .  S
C362        H374   1.082       .  S
C363        C364   1.374       .  A
C363        H375   1.082       .  S
C364        H376   1.082       .  S
C365        C467   1.482       .  S
C366        C457   1.485       .  S
C367        C494   1.485       .  S
C368        C507   1.484       .  S
N379        H411   1.039       .  S
N379        C384   1.353       .  A
N380        C387   1.352       .  A
N380        C388   1.351   1_545  A
N381        H412   1.039       .  S
N381        C386   1.353       .  A
N382        C389   1.351       .  A
N382        C390   1.351   1_545  A
C383        C391   1.387       .  A
C383        C399   1.416       .  A
C384        C400   1.416       .  A
C384        C392   1.387       .  A
C385        C393   1.387       .  A
C385        C402   1.415       .  A
C386        C401   1.414       .  A
C386        C394   1.387       .  A
C387        C399   1.413       .  A
C387        C395   1.386       .  A
C388        C402   1.414       .  A
C388        C396   1.386       .  A
C389        C397   1.387       .  A
C389        C400   1.414       .  A
C390        C398   1.386       .  A
C390        C401   1.411       .  A
C391        H403   1.082       .  S
C392        H404   1.082       .  S
C393        H405   1.082       .  S
C394        H406   1.082       .  S
C395        C396   1.373   1_545  A
C395        H407   1.082       .  S
C396        H408   1.082       .  S
C397        C398   1.372   1_545  A
C397        H409   1.082       .  S
C398        H410   1.082       .  S
C399        C424   1.486       .  S
C400        C417   1.488       .  S
C401        C517   1.482       .  S
C402        C527   1.486       .  S
C413        C414   1.406       .  A
C413        C418   1.394       .  A
C413        H419   1.083       .  S
C414        C415   1.406       .  A
C415        C416   1.400       .  A
C415        H420   1.083       .  S
C416        C417   1.404       .  A
C416        H421   1.083       .  S
C417        C418   1.402       .  A
C418        H422   1.083       .  S
C423        C424   1.402       .  A
C423        C428   1.398       .  A
C423        H429   1.083       .  S
C424        C425   1.402       .  A
C425        C426   1.400       .  A
C425        H430   1.083       .  S
C426        C427   1.408       .  A
C426        H431   1.083       .  S
C427        C428   1.406       .  A
C428        H432   1.083       .  S
C433        C434   1.406       .  A
C433        C438   1.397       .  A
C433        H439   1.083       .  S
C434        C435   1.407       .  A
C435        C436   1.398       .  A
C435        H440   1.083       .  S
C436        C437   1.401       .  A
C436        H441   1.083       .  S
C437        C438   1.402       .  A
C438        H442   1.083       .  S
C443        C444   1.404       .  A
C443        C448   1.395       .  A
C443        H449   1.083       .  S
C444        C445   1.407       .  A
C445        C446   1.402       .  A
C445        H450   1.083       .  S
C446        C447   1.404       .  A
C446        H451   1.083       .  S
C447        C448   1.402       .  A
C448        H452   1.083       .  S
C453        C454   1.407       .  A
C453        C458   1.395       .  A
C453        H459   1.083       .  S
C454        C455   1.408       .  A
C455        C456   1.401       .  A
C455        H460   1.083       .  S
C456        C457   1.403       .  A
C456        H461   1.083       .  S
C457        C458   1.401       .  A
C458        H462   1.083       .  S
C463        C464   1.406       .  A
C463        C468   1.399       .  A
C463        H469   1.083       .  S
C464        C465   1.407       .  A
C465        C466   1.398       .  A
C465        H470   1.083       .  S
C466        C467   1.400       .  A
C466        H471   1.083       .  S
C467        C468   1.403       .  A
C468        H472   1.083       .  S
C473        C474   1.408       .  A
C473        C478   1.397       .  A
C473        H479   1.083       .  S
C474        C475   1.406       .  A
C475        C476   1.397       .  A
C475        H480   1.083       .  S
C476        C477   1.402       .  A
C476        H481   1.083       .  S
C477        C478   1.401       .  A
C478        H482   1.083       .  S
C483        C484   1.407       .  A
C483        C488   1.401       .  A
C483        H489   1.083       .  S
C484        C485   1.405       .  A
C485        C486   1.396       .  A
C485        H490   1.083       .  S
C486        C487   1.402       .  A
C486        H491   1.083       .  S
C487        C488   1.403       .  A
C488        H492   1.083       .  S
C493        C494   1.403       .  A
C493        C498   1.398       .  A
C493        H499   1.083       .  S
C494        C495   1.402       .  A
C495        C496   1.400       .  A
C495        H500   1.083       .  S
C496        C497   1.408       .  A
C496        H501   1.083       .  S
C497        C498   1.406       .  A
C498        H502   1.083       .  S
C503        C504   1.407       .  A
C503        C508   1.399       .  A
C503        H509   1.083       .  S
C504        C505   1.406       .  A
C505        C506   1.394       .  A
C505        H510   1.083       .  S
C506        C507   1.402       .  A
C506        H511   1.083       .  S
C507        C508   1.403       .  A
C508        H512   1.083       .  S
C513        C514   1.407       .  A
C513        C518   1.399       .  A
C513        H519   1.083       .  S
C514        C515   1.406       .  A
C515        C516   1.396       .  A
C515        H520   1.083       .  S
C516        C517   1.401       .  A
C516        H521   1.083       .  S
C517        C518   1.401       .  A
C518        H522   1.083       .  S
C523        C524   1.408       .  A
C523        C528   1.402       .  A
C523        H529   1.083       .  S
C524        C525   1.407       .  A
C525        C526   1.394       .  A
C525        H530   1.083       .  S
C526        C527   1.400       .  A
C526        H531   1.083       .  S
C527        C528   1.404       .  A
C528        H532   1.083       .  S
