geometry optimzed in LAMMPS
_audit_creation_date              2020-11-30 
_audit_creation_method            'lammps2cif' 
_symmetry_space_group_name_H-M    'P1' 
_symmetry_Int_Tables_number       1 
_symmetry_cell_setting            triclinic 
loop_ 
_symmetry_equiv_pos_as_xyz 
  x,y,z 
_cell_length_a                    61.32163756 
_cell_length_b                    61.342946013930636 
_cell_length_c                    61.34380995013947 
_cell_angle_alpha                 89.96952682030357 
_cell_angle_beta                  90.05966220004291 
_cell_angle_gamma                 89.92243294095408 
loop_ 
_atom_site_label 
_atom_site_type_symbol 
_atom_site_fract_x 
_atom_site_fract_y 
_atom_site_fract_z 
_atom_site_charge 
O1          O  0.09138711  0.12436185  0.35065754    -0.73200
O2          O  0.15689720  0.12651029  0.35642027    -0.74200
O3          O  0.12534551  0.09274933  0.35213932    -0.62800
O4          O  0.12329437  0.15787140  0.35470903    -0.71200
O5          O  0.11985483  0.15675622  0.39071651    -0.70800
O6          O  0.12215990  0.09111479  0.38809232    -0.62000
O7          O  0.15391473  0.12451395  0.39241478    -0.74500
O8          O  0.08840694  0.12281789  0.38661978    -0.73300
Cu9        Cu  0.12430493  0.12542238  0.35225219     1.04600
Cu10       Cu  0.12096749  0.12377213  0.39072869     1.04300
C11         C  0.07950798  0.12321477  0.36776150     0.93000
C12         C  0.16573863  0.12574352  0.37529588     0.92100
C13         C  0.12409265  0.08156169  0.36966812     0.84300
C14         C  0.12147489  0.16762824  0.37299433     0.90500
O15         O  0.12446686  0.84182673  0.34684263    -0.73200
O16         O  0.12357054  0.90709726  0.34794222    -0.74200
O17         O  0.15667824  0.87506456  0.34993670    -0.62800
O18         O  0.09096225  0.87429209  0.34517770    -0.71200
O19         O  0.08884186  0.87461484  0.38123512    -0.70800
O20         O  0.15395648  0.87276711  0.38594230    -0.62000
O21         O  0.12213111  0.90663952  0.38404192    -0.74500
O22         O  0.12045840  0.84099144  0.38278070    -0.73300
Cu23       Cu  0.12398098  0.87456107  0.34621189     1.04600
Cu24       Cu  0.12124913  0.87373188  0.38474719     1.04300
C25         C  0.12251793  0.83106988  0.36457436     0.93000
C26         C  0.12302805  0.91725712  0.36609956     0.92100
C27         C  0.16562701  0.87389321  0.36874377     0.84300
C28         C  0.07950645  0.87464456  0.36260858     0.90500
O29         O  0.87358308  0.16549458  0.34446520    -0.73200
O30         O  0.87015966  0.10011292  0.34340496    -0.74200
O31         O  0.83905064  0.13452420  0.34426066    -0.62800
O32         O  0.90467924  0.13117587  0.34371303    -0.71200
O33         O  0.90486916  0.13140341  0.37984666    -0.70800
O34         O  0.83966628  0.13226150  0.38038506    -0.62000
O35         O  0.87150958  0.09941813  0.37951280    -0.74500
O36         O  0.87231560  0.16477125  0.38063728    -0.73300
Cu37       Cu  0.87187630  0.13288031  0.34267304     1.04600
Cu38       Cu  0.87214985  0.13200797  0.38133123     1.04300
C39         C  0.87311035  0.17542627  0.36275271     0.93000
C40         C  0.87023581  0.08939986  0.36129960     0.92100
C41         C  0.82905945  0.13336126  0.36250887     0.84300
C42         C  0.91516321  0.13072047  0.36174631     0.90500
O43         O  0.83805386  0.88163859  0.35149374    -0.73200
O44         O  0.90346557  0.88117087  0.34643026    -0.74200
O45         O  0.87040707  0.84854324  0.35049641    -0.62800
O46         O  0.87044491  0.91394950  0.34734047    -0.71200
O47         O  0.87173334  0.91561138  0.38340934    -0.70800
O48         O  0.87486006  0.85012489  0.38637325    -0.62000
O49         O  0.90588406  0.88399558  0.38236768    -0.74500
O50         O  0.84079318  0.88136897  0.38759884    -0.73300
Cu51       Cu  0.87054164  0.88124917  0.34767383     1.04600
Cu52       Cu  0.87345016  0.88286027  0.38618169     1.04300
C53         C  0.82916378  0.88145102  0.37032393     0.93000
C54         C  0.91506028  0.88258676  0.36372064     0.92100
C55         C  0.87266103  0.83900851  0.36889850     0.84300
C56         C  0.87053416  0.92515994  0.36489313     0.90500
O57         O  0.10655465  0.34232399  0.37587882    -0.73200
O58         O  0.10895453  0.40791110  0.37542416    -0.74200
O59         O  0.10494115  0.37544454  0.34287977    -0.62800
O60         O  0.11051534  0.37521744  0.40818824    -0.71200
O61         O  0.14651128  0.37363287  0.40531316    -0.70800
O62         O  0.14098031  0.37398883  0.34007735    -0.62000
O63         O  0.14498324  0.40634551  0.37278700    -0.74500
O64         O  0.14256306  0.34125560  0.37243721    -0.73300
Cu65       Cu  0.10646341  0.37523709  0.37570254     1.04600
Cu66       Cu  0.14498460  0.37373996  0.37256136     1.04300
C67         C  0.12427876  0.33145937  0.37412475     0.93000
C68         C  0.12741258  0.41748015  0.37404822     0.92100
C69         C  0.12215975  0.37495236  0.33114998     0.84300
C70         C  0.12935824  0.37451509  0.41710753     0.90500
O71         O  0.11793990  0.37854481  0.59152713    -0.73200
O72         O  0.11701102  0.37843828  0.65677895    -0.74200
O73         O  0.11718819  0.41140823  0.62407499    -0.62800
O74         O  0.11797728  0.34581229  0.62398321    -0.71200
O75         O  0.15411972  0.34627563  0.62641712    -0.70800
O76         O  0.15332868  0.41142625  0.62331976    -0.62000
O77         O  0.15314215  0.38050375  0.65740646    -0.74500
O78         O  0.15407346  0.37754511  0.59190453    -0.73300
Cu79       Cu  0.11626123  0.37853930  0.62407640     1.04600
Cu80       Cu  0.15492735  0.37893422  0.62475581     1.04300
C81         C  0.13608016  0.37786388  0.58132962     0.93000
C82         C  0.13488789  0.37973429  0.66741025     0.92100
C83         C  0.13525567  0.42179609  0.62350961     0.84300
C84         C  0.13618263  0.33576777  0.62551617     0.90500
O85         O  0.11274284  0.65710209  0.37147155    -0.73200
O86         O  0.11340290  0.59184007  0.37129210    -0.74200
O87         O  0.11437305  0.62454416  0.40399498    -0.62800
O88         O  0.11189979  0.62469561  0.33865853    -0.71200
O89         O  0.14803953  0.62270351  0.33720959    -0.70800
O90         O  0.15043706  0.62650192  0.40259301    -0.62000
O91         O  0.14955503  0.59199680  0.37156890    -0.74500
O92         O  0.14876550  0.65741364  0.36786255    -0.73300
Cu93       Cu  0.11185656  0.62450204  0.37140161     1.04600
Cu94       Cu  0.15048565  0.62466355  0.36979329     1.04300
C95         C  0.13059619  0.66755990  0.36932063     0.93000
C96         C  0.13153332  0.58154494  0.37158011     0.92100
C97         C  0.13278898  0.62589641  0.41367283     0.84300
C98         C  0.12954481  0.62352281  0.32765765     0.90500
O99         O  0.15132488  0.59741688  0.62185454    -0.73200
O100        O  0.14667837  0.66298064  0.62252803    -0.74200
O101        O  0.14801771  0.63009231  0.65470547    -0.62800
O102        O  0.15042288  0.63054419  0.58922603    -0.71200
O103        O  0.11441849  0.62773325  0.58779556    -0.70800
O104        O  0.11194864  0.62737192  0.65324680    -0.62000
O105        O  0.11063431  0.66024779  0.62038571    -0.74500
O106        O  0.11526257  0.59531562  0.62051709    -0.73300
Cu107      Cu  0.15040111  0.63035156  0.62208369     1.04600
Cu108      Cu  0.11184429  0.62761398  0.62042655     1.04300
C109        C  0.13386974  0.58600550  0.62127684     0.93000
C110        C  0.12782648  0.67188484  0.62169077     0.92100
C111        C  0.12960316  0.62858313  0.66429271     0.84300
C112        C  0.13282617  0.62906974  0.57811951     0.90500
O113        O  0.65460646  0.14441097  0.37568715    -0.73200
O114        O  0.58968911  0.13887774  0.37894355    -0.74200
O115        O  0.62389093  0.14240871  0.41037442    -0.62800
O116        O  0.62100116  0.14090940  0.34483620    -0.71200
O117        O  0.62342583  0.10478884  0.34569726    -0.70800
O118        O  0.62636567  0.10636345  0.41096726    -0.62000
O119        O  0.59231173  0.10284010  0.37964591    -0.74500
O120        O  0.65747966  0.10832947  0.37699850    -0.73300
Cu121      Cu  0.62213660  0.14290630  0.37748657     1.04600
Cu122      Cu  0.62500401  0.10432698  0.37837560     1.04300
C123        C  0.66626081  0.12716459  0.37562424     0.93000
C124        C  0.58064329  0.12011347  0.37956677     0.92100
C125        C  0.62578486  0.12458306  0.42105472     0.84300
C126        C  0.62191261  0.12259277  0.33498154     0.90500
O127        O  0.66019090  0.11177315  0.62944207    -0.73200
O128        O  0.59448091  0.11178388  0.62846801    -0.74200
O129        O  0.62792855  0.11121731  0.59636511    -0.62800
O130        O  0.62656446  0.11199721  0.66166099    -0.71200
O131        O  0.62726948  0.14818258  0.66144357    -0.70800
O132        O  0.62791247  0.14732866  0.59548276    -0.62000
O133        O  0.59469726  0.14791243  0.62816136    -0.74500
O134        O  0.65989936  0.14795204  0.62907064    -0.73300
Cu135      Cu  0.62729268  0.11044564  0.62898755     1.04600
Cu136      Cu  0.62740500  0.14910577  0.62849306     1.04300
C137        C  0.67037079  0.12996258  0.62948067     0.93000
C138        C  0.58418855  0.12993221  0.62835209     0.92100
C139        C  0.62823377  0.12899752  0.58551227     0.84300
C140        C  0.62683377  0.13012783  0.67187894     0.90500
O141        O  0.37319105  0.13686498  0.41652613    -0.73200
O142        O  0.37390640  0.13555867  0.35095269    -0.74200
O143        O  0.34097215  0.13749017  0.38300956    -0.62800
O144        O  0.40632164  0.13500779  0.38414514    -0.71200
O145        O  0.40533915  0.09890235  0.38483816    -0.70800
O146        O  0.33943492  0.10137445  0.38426721    -0.62000
O147        O  0.37304076  0.09939212  0.35170272    -0.74500
O148        O  0.37222441  0.10075297  0.41717080    -0.73300
Cu149      Cu  0.37365227  0.13746342  0.38366748     1.04600
Cu150      Cu  0.37243643  0.09883583  0.38452920     1.04300
C151        C  0.37266344  0.11898168  0.42724257     0.93000
C152        C  0.37364397  0.11726588  0.34099713     0.92100
C153        C  0.32984630  0.11990449  0.38337259     0.84300
C154        C  0.41623887  0.11666145  0.38450195     0.90500
O155        O  0.34334104  0.14417832  0.63364695    -0.73200
O156        O  0.40879995  0.14607077  0.63327387    -0.74200
O157        O  0.37576206  0.14327868  0.60083242    -0.62800
O158        O  0.37643899  0.14708582  0.66625943    -0.71200
O159        O  0.37706516  0.11096722  0.66816995    -0.70800
O160        O  0.37697593  0.10722239  0.60292492    -0.62000
O161        O  0.40993030  0.11002344  0.63547151    -0.74500
O162        O  0.34438579  0.10809367  0.63582186    -0.73300
Cu163      Cu  0.37604983  0.14640795  0.63344156     1.04600
Cu164      Cu  0.37714927  0.10782845  0.63566869     1.04300
C165        C  0.33350589  0.12584652  0.63475488     0.93000
C166        C  0.41976568  0.12835744  0.63429440     0.92100
C167        C  0.37618696  0.12465131  0.59150873     0.84300
C168        C  0.37676651  0.12956446  0.67754052     0.90500
O169        O  0.88907333  0.63098907  0.33842739    -0.73200
O170        O  0.88847116  0.63151920  0.40345892    -0.74200
O171        O  0.88783419  0.59875373  0.37105475    -0.62800
O172        O  0.88957769  0.66422676  0.37103888    -0.71200
O173        O  0.85339353  0.66533427  0.37033959    -0.70800
O174        O  0.85170336  0.59993180  0.37053130    -0.62000
O175        O  0.85234239  0.63269736  0.40352278    -0.74500
O176        O  0.85288939  0.63268866  0.33782055    -0.73300
Cu177      Cu  0.88997725  0.63138404  0.37100722     1.04600
Cu178      Cu  0.85130027  0.63270698  0.37056901     1.04300
C179        C  0.87113824  0.63151479  0.32785172     0.93000
C180        C  0.87046132  0.63208317  0.41387514     0.92100
C181        C  0.86945442  0.58896744  0.37061706     0.84300
C182        C  0.87177262  0.67509842  0.37068219     0.90500
O183        O  0.89324244  0.63214422  0.65345068    -0.73200
O184        O  0.89142271  0.63330957  0.58816666    -0.74200
O185        O  0.89192778  0.66579884  0.62099708    -0.62800
O186        O  0.89263525  0.60015286  0.62014717    -0.71200
O187        O  0.85649641  0.60009803  0.62103927    -0.70800
O188        O  0.85575454  0.66522751  0.62244361    -0.62000
O189        O  0.85528070  0.63325771  0.58886910    -0.74500
O190        O  0.85705927  0.63224003  0.65456103    -0.73300
Cu191      Cu  0.89357209  0.63292143  0.62068701     1.04600
Cu192      Cu  0.85489783  0.63271510  0.62176623     1.04300
C193        C  0.87548005  0.63178284  0.66432793     0.93000
C194        C  0.87315247  0.63322736  0.57813468     0.92100
C195        C  0.87364754  0.67581639  0.62187718     0.84300
C196        C  0.87458383  0.58975113  0.62022710     0.90500
O197        O  0.85127263  0.41388496  0.36812755    -0.73200
O198        O  0.85375510  0.34848734  0.36914447    -0.74200
O199        O  0.85254609  0.38168800  0.40116054    -0.62800
O200        O  0.85234308  0.38091312  0.33589657    -0.71200
O201        O  0.88857055  0.38149279  0.33576268    -0.70800
O202        O  0.88868349  0.38290011  0.40102204    -0.62000
O203        O  0.88994272  0.34979008  0.36871558    -0.74500
O204        O  0.88741149  0.41494045  0.36782375    -0.73300
Cu205      Cu  0.85120551  0.38118845  0.36858278     1.04600
Cu206      Cu  0.88990310  0.38235720  0.36835247     1.04300
C207        C  0.86902404  0.42477598  0.36788846     0.93000
C208        C  0.87225205  0.33884927  0.36889548     0.92100
C209        C  0.87065055  0.38246947  0.41144666     0.84300
C210        C  0.87041799  0.38090352  0.32556764     0.90500
O211        O  0.85783300  0.38089682  0.58648035    -0.73200
O212        O  0.85966397  0.38351809  0.65149192    -0.74200
O213        O  0.85843357  0.41480549  0.61759715    -0.62800
O214        O  0.85939125  0.34936920  0.62042142    -0.71200
O215        O  0.89548067  0.34993136  0.61816087    -0.70800
O216        O  0.89457093  0.41543179  0.61736319    -0.62000
O217        O  0.89582241  0.38292293  0.65067173    -0.74500
O218        O  0.89392644  0.38229659  0.58506698    -0.73300
Cu219      Cu  0.85759995  0.38212183  0.61902027     1.04600
Cu220      Cu  0.89623229  0.38266065  0.61778672     1.04300
C221        C  0.87545090  0.38147896  0.57541529     0.93000
C222        C  0.87796323  0.38342069  0.66143167     0.92100
C223        C  0.87630936  0.42550520  0.61712599     0.84300
C224        C  0.87764050  0.33928776  0.61964616     0.90500
O225        O  0.33973063  0.89156485  0.37602320    -0.73200
O226        O  0.40526862  0.89207355  0.37928911    -0.74200
O227        O  0.37438414  0.89044789  0.34531137    -0.62800
O228        O  0.37098924  0.89328407  0.41044829    -0.71200
O229        O  0.37189898  0.85719776  0.41217971    -0.70800
O230        O  0.37306966  0.85431131  0.34656558    -0.62000
O231        O  0.40530712  0.85594570  0.37995484    -0.74500
O232        O  0.33985406  0.85550636  0.37901588    -0.73300
Cu233      Cu  0.37254702  0.89308993  0.37774158     1.04600
Cu234      Cu  0.37254525  0.85447322  0.37949084     1.04300
C235        C  0.32945541  0.87347367  0.37719507     0.93000
C236        C  0.41568510  0.87401660  0.37973857     0.92100
C237        C  0.37432860  0.87202202  0.33563307     0.84300
C238        C  0.37105208  0.87572751  0.42168543     0.90500
O239        O  0.36998137  0.86088017  0.59643411    -0.73200
O240        O  0.37144076  0.86114926  0.66206886    -0.74200
O241        O  0.33817979  0.86219554  0.63018251    -0.62800
O242        O  0.40373288  0.85973681  0.62867475    -0.71200
O243        O  0.40487826  0.89584508  0.62808028    -0.70800
O244        O  0.33948804  0.89834627  0.62960578    -0.62000
O245        O  0.37330889  0.89728946  0.66158826    -0.74500
O246        O  0.37130164  0.89698774  0.59631977    -0.73300
Cu247      Cu  0.37081232  0.85971113  0.62932151     1.04600
Cu248      Cu  0.37228483  0.89834933  0.62889994     1.04300
C249        C  0.37023755  0.87894333  0.58599158     0.93000
C250        C  0.37265428  0.87933896  0.67213947     0.92100
C251        C  0.32850287  0.88065736  0.63011673     0.84300
C252        C  0.41470286  0.87745636  0.62825514     0.90500
O253        O  0.62062490  0.90160864  0.59686400    -0.73200
O254        O  0.62214946  0.90071096  0.66222889    -0.74200
O255        O  0.65387613  0.90295137  0.62891345    -0.62800
O256        O  0.58853216  0.89911266  0.63007426    -0.71200
O257        O  0.59048870  0.86304008  0.62887414    -0.70800
O258        O  0.65571998  0.86681796  0.62973640    -0.62000
O259        O  0.62274721  0.86452495  0.66176677    -0.74500
O260        O  0.62336123  0.86558000  0.59631647    -0.73300
Cu261      Cu  0.62118903  0.90235372  0.62953645     1.04600
Cu262      Cu  0.62316055  0.86373428  0.62912006     1.04300
C263        C  0.62191796  0.88377131  0.58619682     0.93000
C264        C  0.62268231  0.88248417  0.67230318     0.92100
C265        C  0.66510189  0.88540204  0.62950750     0.84300
C266        C  0.57914454  0.88050449  0.62954193     0.90500
O267        O  0.62637991  0.85853971  0.34750831    -0.73200
O268        O  0.62182355  0.86317852  0.41253332    -0.74200
O269        O  0.59127098  0.85950670  0.37802945    -0.62800
O270        O  0.65664158  0.86252775  0.38234982    -0.71200
O271        O  0.65468465  0.89841332  0.37812803    -0.70800
O272        O  0.58949417  0.89557160  0.37655394    -0.62000
O273        O  0.62107465  0.89922830  0.41023760    -0.74500
O274        O  0.62285436  0.89443575  0.34461561    -0.73300
Cu275      Cu  0.62406291  0.85969431  0.38018988     1.04600
Cu276      Cu  0.62199587  0.89818100  0.37730152     1.04300
C277        C  0.62508164  0.87569241  0.33575279     0.93000
C278        C  0.62098068  0.88182446  0.42175740     0.92100
C279        C  0.58001199  0.87705758  0.37696246     0.84300
C280        C  0.66597104  0.88104931  0.38054379     0.90500
O281        O  0.15419181  0.87752639  0.64790747    -0.73200
O282        O  0.08851407  0.87765039  0.64693578    -0.74200
O283        O  0.12147984  0.84498866  0.64618731    -0.62800
O284        O  0.12132077  0.91042453  0.64887909    -0.71200
O285        O  0.12141250  0.91204546  0.61278485    -0.70800
O286        O  0.12167870  0.84649163  0.61002915    -0.62000
O287        O  0.08919266  0.87901307  0.61082481    -0.74500
O288        O  0.15442258  0.87982754  0.61177461    -0.73300
Cu289      Cu  0.12136246  0.87759823  0.64874593     1.04600
Cu290      Cu  0.12172821  0.87937274  0.61010818     1.04300
C291        C  0.16460603  0.87893799  0.62992868     0.93000
C292        C  0.07848351  0.87818009  0.62864406     0.92100
C293        C  0.12141111  0.83542037  0.62769900     0.84300
C294        C  0.12129388  0.92162992  0.63129197     0.90500
O295        O  0.09474894  0.13053214  0.61316671    -0.73200
O296        O  0.15997725  0.12771500  0.61532492    -0.74200
O297        O  0.12577503  0.09616860  0.61498671    -0.62800
O298        O  0.12869792  0.16160640  0.61351258    -0.71200
O299        O  0.12925680  0.16221822  0.64967596    -0.70800
O300        O  0.12364483  0.09691887  0.65104436    -0.62000
O301        O  0.15890089  0.12666214  0.65151322    -0.74500
O302        O  0.09373655  0.13234096  0.64924499    -0.73300
Cu303      Cu  0.12734202  0.12893679  0.61299219     1.04600
Cu304      Cu  0.12631870  0.12956665  0.65163498     1.04300
C305        C  0.08389998  0.13217729  0.63085783     0.93000
C306        C  0.16969128  0.12669565  0.63372664     0.92100
C307        C  0.12408424  0.08615771  0.63320873     0.84300
C308        C  0.12971153  0.17223160  0.63139022     0.90500
O309        O  0.84422461  0.13369808  0.64712565    -0.73200
O310        O  0.90957396  0.13299252  0.64709429    -0.74200
O311        O  0.87696611  0.16595648  0.64617711    -0.62800
O312        O  0.87656086  0.10033928  0.64798111    -0.71200
O313        O  0.87673172  0.09942804  0.61185605    -0.70800
O314        O  0.87734022  0.16469311  0.60997807    -0.62000
O315        O  0.90943255  0.13186073  0.61096627    -0.74500
O316        O  0.84416395  0.13201218  0.61093896    -0.73300
Cu317      Cu  0.87683268  0.13324708  0.64838046     1.04600
Cu318      Cu  0.87688258  0.13196594  0.60969327     1.04300
C319        C  0.83393502  0.13293090  0.62904134     0.93000
C320        C  0.91986546  0.13254840  0.62898436     0.92100
C321        C  0.87740321  0.17558696  0.62771604     0.84300
C322        C  0.87659803  0.08949851  0.63016158     0.90500
O323        O  0.83872132  0.88451232  0.60793945    -0.73200
O324        O  0.90406696  0.88127367  0.60773107    -0.74200
O325        O  0.87029481  0.85014383  0.60675368    -0.62800
O326        O  0.87293837  0.91556396  0.60883334    -0.71200
O327        O  0.87253996  0.91416869  0.64494406    -0.70800
O328        O  0.87014696  0.84900043  0.64294743    -0.62000
O329        O  0.90405782  0.88030878  0.64387039    -0.74500
O330        O  0.83883992  0.88247508  0.64410067    -0.73300
Cu331      Cu  0.87146654  0.88291636  0.60652944     1.04600
Cu332      Cu  0.87140154  0.88147942  0.64520678     1.04300
C333        C  0.82851146  0.88385579  0.62608259     0.93000
C334        C  0.91440737  0.88021833  0.62579955     0.92100
C335        C  0.86997529  0.83929556  0.62454312     0.84300
C336        C  0.87318157  0.92523101  0.62728812     0.90500
O337        O  0.39187337  0.11911109  0.16668528    -0.73200
O338        O  0.39154042  0.12241008  0.10131861    -0.74200
O339        O  0.39075087  0.15360268  0.13566910    -0.62800
O340        O  0.39264011  0.08835324  0.13239159    -0.71200
O341        O  0.35655323  0.08703541  0.13395534    -0.70800
O342        O  0.35460850  0.15259383  0.13353710    -0.62000
O343        O  0.35549193  0.11964195  0.10135401    -0.74500
O344        O  0.35567754  0.12013347  0.16682064    -0.73300
Cu345      Cu  0.39295718  0.12093318  0.13403732     1.04600
Cu346      Cu  0.35430764  0.11982668  0.13397687     1.04300
C347        C  0.37382740  0.11928542  0.17706233     0.93000
C348        C  0.37347931  0.12111035  0.09096678     0.92100
C349        C  0.37237572  0.16339173  0.13462093     0.84300
C350        C  0.37497598  0.07732531  0.13266043     0.90500
O351        O  0.35944828  0.15627015  0.88407248    -0.73200
O352        O  0.36208490  0.09085915  0.88188563    -0.74200
O353        O  0.35915640  0.12232284  0.91566777    -0.62800
O354        O  0.36217844  0.12465444  0.85059785    -0.71200
O355        O  0.39822360  0.12792948  0.85217561    -0.70800
O356        O  0.39527692  0.12285429  0.91743416    -0.62000
O357        O  0.39819017  0.09251229  0.88256184    -0.74500
O358        O  0.39548793  0.15761673  0.88749756    -0.73300
Cu359      Cu  0.35945843  0.12348143  0.88300240     1.04600
Cu360      Cu  0.39806845  0.12523038  0.88495329     1.04300
C361        C  0.37703875  0.16720006  0.88634490     0.93000
C362        C  0.38062820  0.08131486  0.88176436     0.92100
C363        C  0.37672318  0.12222935  0.92689035     0.84300
C364        C  0.38056092  0.12692656  0.84114199     0.90500
O365        O  0.40139835  0.90630092  0.87947841    -0.73200
O366        O  0.40007988  0.84077963  0.87575451    -0.74200
O367        O  0.39883391  0.87571108  0.84502011    -0.62800
O368        O  0.40264261  0.87172305  0.91037057    -0.71200
O369        O  0.36658400  0.87360717  0.91212974    -0.70800
O370        O  0.36270280  0.87446538  0.84691329    -0.62000
O371        O  0.36408187  0.84155801  0.87945883    -0.74500
O372        O  0.36525345  0.90684605  0.87994670    -0.73300
Cu373      Cu  0.40202481  0.87358371  0.87756671     1.04600
Cu374      Cu  0.36342131  0.87415453  0.87966330     1.04300
C375        C  0.38347165  0.91695409  0.88002025     0.93000
C376        C  0.38184311  0.83084743  0.87751954     0.92100
C377        C  0.38019151  0.87560778  0.83567973     0.84300
C378        C  0.38509688  0.87219240  0.92161310     0.90500
O379        O  0.39821938  0.87190539  0.16224389    -0.73200
O380        O  0.40111528  0.86926073  0.09710694    -0.74200
O381        O  0.39870347  0.90318794  0.12834835    -0.62800
O382        O  0.40015837  0.83762443  0.13112486    -0.71200
O383        O  0.36410895  0.83717466  0.12776998    -0.70800
O384        O  0.36256637  0.90246163  0.12810660    -0.62000
O385        O  0.36500775  0.86980524  0.09536906    -0.74500
O386        O  0.36212473  0.86938464  0.16098099    -0.73300
Cu387      Cu  0.40080483  0.87051390  0.12977439     1.04600
Cu388      Cu  0.36218367  0.86969515  0.12803377     1.04300
C389        C  0.37983618  0.87080681  0.17191981     0.93000
C390        C  0.38356524  0.86933909  0.08586846     0.92100
C391        C  0.38040030  0.91321177  0.12792242     0.84300
C392        C  0.38225178  0.82708481  0.12944933     0.90500
O393        O  0.86614701  0.39669162  0.15199718    -0.73200
O394        O  0.86877078  0.39797495  0.08661381    -0.74200
O395        O  0.83481312  0.39483003  0.11784900    -0.62800
O396        O  0.90029936  0.39964293  0.12070352    -0.71200
O397        O  0.90278235  0.36363251  0.11900277    -0.70800
O398        O  0.83772745  0.35876882  0.11893453    -0.62000
O399        O  0.87029950  0.36188264  0.08593148    -0.74500
O400        O  0.87045567  0.36076583  0.15142919    -0.73300
Cu401      Cu  0.86740905  0.39856191  0.11929296     1.04600
Cu402      Cu  0.87038829  0.36002610  0.11875646     1.04300
C403        C  0.86822861  0.37854608  0.16203807     0.93000
C404        C  0.86974922  0.38015124  0.07587382     0.92100
C405        C  0.82598363  0.37596799  0.11835498     0.84300
C406        C  0.91190402  0.38229270  0.12031303     0.90500
O407        O  0.87025856  0.39794200  0.83537182    -0.73200
O408        O  0.87313942  0.39854123  0.90079170    -0.74200
O409        O  0.90441816  0.40112847  0.86669180    -0.62800
O410        O  0.83919312  0.39528793  0.86985433    -0.71200
O411        O  0.84242618  0.35928031  0.86820646    -0.70800
O412        O  0.90760189  0.36515023  0.86812590    -0.62000
O413        O  0.87503129  0.36246019  0.90116582    -0.74500
O414        O  0.87541668  0.36209945  0.83553316    -0.73300
Cu415      Cu  0.87163444  0.39947536  0.86814995     1.04600
Cu416      Cu  0.87520539  0.36098307  0.86828006     1.04300
C417        C  0.87295818  0.37999587  0.82515133     0.93000
C418        C  0.87414449  0.38062064  0.91138316     0.92100
C419        C  0.91634893  0.38401482  0.86700476     0.84300
C420        C  0.83052907  0.37635974  0.86945326     0.90500
O421        O  0.11847895  0.40040804  0.15785462    -0.73200
O422        O  0.12042418  0.40338955  0.09238981    -0.74200
O423        O  0.08692688  0.40249078  0.12428053    -0.62800
O424        O  0.15254841  0.40122709  0.12614398    -0.71200
O425        O  0.15170260  0.36521989  0.12262486    -0.70800
O426        O  0.08636228  0.36636107  0.12394279    -0.62000
O427        O  0.11858392  0.36734380  0.09072563    -0.74500
O428        O  0.11975693  0.36426182  0.15620800    -0.73300
Cu429      Cu  0.11965125  0.40314634  0.12523284     1.04600
Cu430      Cu  0.11908116  0.36454255  0.12335016     1.04300
C431        C  0.11890240  0.38186342  0.16731912     0.93000
C432        C  0.11950079  0.38584513  0.08116843     0.92100
C433        C  0.07625532  0.38460553  0.12404089     0.84300
C434        C  0.16244646  0.38296995  0.12420954     0.90500
O435        O  0.15676841  0.40297514  0.87643910    -0.73200
O436        O  0.09147340  0.40632758  0.87052684    -0.74200
O437        O  0.12142716  0.40546321  0.90599592    -0.62800
O438        O  0.12712293  0.40397779  0.84082720    -0.71200
O439        O  0.12350095  0.36796379  0.84114872    -0.70800
O440        O  0.12111682  0.36933650  0.90659115    -0.62000
O441        O  0.08992578  0.37025933  0.87226341    -0.74500
O442        O  0.15503000  0.36684546  0.87494794    -0.73300
Cu443      Cu  0.12424630  0.40596415  0.87341566     1.04600
Cu444      Cu  0.12232727  0.36735375  0.87380352     1.04300
C445        C  0.16616604  0.38436589  0.87632660     0.93000
C446        C  0.08036749  0.38869154  0.87050928     0.92100
C447        C  0.12073394  0.38758905  0.91667705     0.84300
C448        C  0.12594333  0.38580831  0.83070919     0.90500
O449        O  0.64567793  0.86617822  0.16182694    -0.73200
O450        O  0.64666556  0.86599485  0.09641867    -0.74200
O451        O  0.64645197  0.89895891  0.12892043    -0.62800
O452        O  0.64578048  0.83353125  0.12942770    -0.71200
O453        O  0.60959762  0.83388746  0.12818991    -0.70800
O454        O  0.61032159  0.89942540  0.12795216    -0.62000
O455        O  0.61053840  0.86645218  0.09539558    -0.74500
O456        O  0.60950202  0.86712614  0.16115395    -0.73300
Cu457      Cu  0.64737949  0.86616934  0.12916024     1.04600
Cu458      Cu  0.60871381  0.86672975  0.12818329     1.04300
C459        C  0.62743465  0.86672857  0.17183907     0.93000
C460        C  0.62888446  0.86608290  0.08551132     0.92100
C461        C  0.62850157  0.90958458  0.12833794     0.84300
C462        C  0.62761201  0.82338903  0.12876129     0.90500
O463        O  0.65029618  0.83619229  0.87619806    -0.73200
O464        O  0.64814145  0.90144905  0.87998727    -0.74200
O465        O  0.64937649  0.86683872  0.91071154    -0.62800
O466        O  0.64885767  0.87125242  0.84538018    -0.71200
O467        O  0.61268590  0.86933701  0.84563642    -0.70800
O468        O  0.61325580  0.86549179  0.91085470    -0.62000
O469        O  0.61201348  0.90018829  0.88008372    -0.74500
O470        O  0.61412779  0.83478590  0.87604823    -0.73300
Cu471      Cu  0.65042825  0.86892904  0.87806090     1.04600
Cu472      Cu  0.61176296  0.86740499  0.87818511     1.04300
C473        C  0.63262515  0.82517812  0.87555940     0.93000
C474        C  0.62972399  0.91118906  0.88044611     0.92100
C475        C  0.63138608  0.86559280  0.92115490     0.84300
C476        C  0.63062930  0.87114230  0.83526407     0.90500
O477        O  0.60896386  0.15100011  0.87877219    -0.73200
O478        O  0.60962475  0.08577651  0.87823124    -0.74200
O479        O  0.60912294  0.11794194  0.91137641    -0.62800
O480        O  0.60976130  0.11866639  0.84564415    -0.71200
O481        O  0.64589548  0.12049498  0.84628234    -0.70800
O482        O  0.64528675  0.11739506  0.91143447    -0.62000
O483        O  0.64576570  0.08589464  0.87758531    -0.74500
O484        O  0.64512689  0.15137447  0.88071366    -0.73300
Cu485      Cu  0.60809852  0.11831647  0.87847606     1.04600
Cu486      Cu  0.64677278  0.11874847  0.87897285     1.04300
C487        C  0.62689926  0.16147233  0.88016431     0.93000
C488        C  0.62771926  0.07545033  0.87786010     0.92100
C489        C  0.62722460  0.11757937  0.92176637     0.84300
C490        C  0.62798403  0.12012308  0.83562796     0.90500
O491        O  0.64233990  0.15023874  0.12924669    -0.73200
O492        O  0.64362065  0.08490860  0.13046081    -0.74200
O493        O  0.64448995  0.11699955  0.09701956    -0.62800
O494        O  0.64126795  0.11861526  0.16235188    -0.71200
O495        O  0.60512001  0.11728079  0.16042349    -0.70800
O496        O  0.60839702  0.11544792  0.09534263    -0.62000
O497        O  0.60752942  0.08373284  0.12875595    -0.74500
O498        O  0.60622349  0.14913529  0.12669117    -0.73300
Cu499      Cu  0.64419971  0.11766745  0.12983105     1.04600
Cu500      Cu  0.60556159  0.11638310  0.12776690     1.04300
C501        C  0.62399630  0.15996833  0.12770649     0.93000
C502        C  0.62591161  0.07394001  0.12974095     0.92100
C503        C  0.62690107  0.11601663  0.08583570     0.84300
C504        C  0.62263867  0.11839346  0.17164313     0.90500
O505        O  0.09184161  0.60677199  0.12178298    -0.73200
O506        O  0.15711008  0.60380602  0.12081935    -0.74200
O507        O  0.12534653  0.60554500  0.15402014    -0.62800
O508        O  0.12406299  0.60508539  0.08851950    -0.71200
O509        O  0.12489743  0.64123593  0.08842268    -0.70800
O510        O  0.12661728  0.64170843  0.15355492    -0.62000
O511        O  0.15864074  0.63993532  0.11991459    -0.74500
O512        O  0.09313484  0.64288266  0.12176767    -0.73300
Cu513      Cu  0.12450958  0.60404200  0.12130043     1.04600
Cu514      Cu  0.12589692  0.64269415  0.12092293     1.04300
C515        C  0.08209954  0.62522048  0.12189576     0.93000
C516        C  0.16820344  0.62139204  0.12010443     0.92100
C517        C  0.12622629  0.62374997  0.16409820     0.84300
C518        C  0.12427656  0.62315553  0.07812944     0.90500
O519        O  0.12860107  0.60586223  0.90378445    -0.73200
O520        O  0.12710039  0.60672121  0.83826479    -0.74200
O521        O  0.16064917  0.60541622  0.87025797    -0.62800
O522        O  0.09523850  0.60713747  0.87173342    -0.71200
O523        O  0.09604584  0.64323920  0.87025935    -0.70800
O524        O  0.16146916  0.64151549  0.87246865    -0.62000
O525        O  0.13002543  0.64278729  0.83857800    -0.74500
O526        O  0.12775544  0.64200049  0.90384816    -0.73300
Cu527      Cu  0.12788793  0.60500911  0.87098190     1.04600
Cu528      Cu  0.12886228  0.64363874  0.87128876     1.04300
C529        C  0.12800766  0.62390917  0.91418252     0.93000
C530        C  0.12857449  0.62485613  0.82810222     0.92100
C531        C  0.17138870  0.62321623  0.87148072     0.84300
C532        C  0.08525453  0.62543366  0.87106790     0.90500
O533        O  0.91172857  0.60321155  0.87099889    -0.73200
O534        O  0.84641773  0.59838903  0.87005409    -0.74200
O535        O  0.87951735  0.60205070  0.83767916    -0.62800
O536        O  0.87887214  0.59974111  0.90331373    -0.71200
O537        O  0.87766418  0.63584099  0.90433058    -0.70800
O538        O  0.87487672  0.63790943  0.83901640    -0.62000
O539        O  0.84381594  0.63434684  0.87321848    -0.74500
O540        O  0.90915453  0.63925903  0.87057226    -0.73300
Cu541      Cu  0.87922062  0.59958122  0.87044340     1.04600
Cu542      Cu  0.87629786  0.63808839  0.87178453     1.04300
C543        C  0.92081298  0.62195092  0.87085987     0.93000
C544        C  0.83482692  0.61560771  0.87198670     0.92100
C545        C  0.87702580  0.62035979  0.82800787     0.84300
C546        C  0.87837566  0.61751108  0.91421050     0.90500
O547        O  0.87547723  0.60560762  0.15496201    -0.73200
O548        O  0.87590251  0.60229128  0.08977022    -0.74200
O549        O  0.90818919  0.60605960  0.12252605    -0.62800
O550        O  0.84285113  0.60181210  0.12246672    -0.71200
O551        O  0.84070187  0.63777511  0.11896478    -0.70800
O552        O  0.90613282  0.64213018  0.12199124    -0.62000
O553        O  0.87489452  0.63837252  0.08798359    -0.74500
O554        O  0.87167210  0.64155500  0.15332518    -0.73300
Cu555      Cu  0.87566925  0.60270597  0.12250606     1.04600
Cu556      Cu  0.87326066  0.64123551  0.12053067     1.04300
C557        C  0.87334336  0.62400928  0.16445790     0.93000
C558        C  0.87577708  0.61983257  0.07851360     0.92100
C559        C  0.91755007  0.62466501  0.12234934     0.84300
C560        C  0.83147644  0.61915446  0.12038597     0.90500
O561        O  0.36701612  0.33585920  0.10870615    -0.73200
O562        O  0.37055461  0.40138829  0.10326566    -0.74200
O563        O  0.40146485  0.36663233  0.10505631    -0.62800
O564        O  0.33621478  0.37032641  0.10653706    -0.71200
O565        O  0.33658779  0.37334383  0.14257943    -0.70800
O566        O  0.40213148  0.36970715  0.14104956    -0.62000
O567        O  0.37093656  0.40383767  0.13930951    -0.74500
O568        O  0.36815942  0.33889340  0.14472937    -0.73300
Cu569      Cu  0.36875533  0.36845457  0.10463385     1.04600
Cu570      Cu  0.36947184  0.37153453  0.14315920     1.04300
C571        C  0.36737308  0.32706224  0.12761732     0.93000
C572        C  0.37118761  0.41297942  0.12059858     0.92100
C573        C  0.41217288  0.36752250  0.12290336     0.84300
C574        C  0.32607030  0.37250091  0.12458694     0.90500
O575        O  0.34165965  0.61862410  0.14060158    -0.73200
O576        O  0.40703134  0.61985305  0.14257599    -0.74200
O577        O  0.37414148  0.65199469  0.14391261    -0.62800
O578        O  0.37486105  0.58675929  0.13928565    -0.71200
O579        O  0.37562044  0.58897025  0.10322871    -0.70800
O580        O  0.37451446  0.65446872  0.10780315    -0.62000
O581        O  0.40773863  0.62227470  0.10651925    -0.74500
O582        O  0.34248045  0.62156841  0.10450825    -0.73300
Cu583      Cu  0.37435346  0.61922590  0.14284732     1.04600
Cu584      Cu  0.37512475  0.62189827  0.10425505     1.04300
C585        C  0.33180852  0.61985526  0.12227551     0.93000
C586        C  0.41774573  0.62134354  0.12478898     0.92100
C587        C  0.37445546  0.66352694  0.12655986     0.84300
C588        C  0.37529851  0.57748038  0.12063555     0.90500
O589        O  0.62501860  0.65024934  0.10385997    -0.73200
O590        O  0.62247469  0.58478107  0.10100206    -0.74200
O591        O  0.59132805  0.61892100  0.10390737    -0.62800
O592        O  0.65661691  0.61623858  0.10097334    -0.71200
O593        O  0.65833489  0.61288704  0.13694908    -0.70800
O594        O  0.59309772  0.61855941  0.14000239    -0.62000
O595        O  0.62299539  0.58327787  0.13710018    -0.74500
O596        O  0.62852273  0.64838310  0.13982915    -0.73300
Cu597      Cu  0.62383909  0.61758748  0.10117010     1.04600
Cu598      Cu  0.62579409  0.61572088  0.13972182     1.04300
C599        C  0.62718218  0.65962954  0.12233099     0.93000
C600        C  0.62209191  0.57366688  0.11864249     0.92100
C601        C  0.58186648  0.61944670  0.12244724     0.84300
C602        C  0.66779962  0.61393972  0.11843427     0.90500
O603        O  0.58694082  0.36551167  0.13832152    -0.73200
O604        O  0.65221204  0.36782595  0.13886627    -0.74200
O605        O  0.61839736  0.39956733  0.13722421    -0.62800
O606        O  0.62101966  0.33421209  0.14001571    -0.71200
O607        O  0.62055516  0.33313377  0.10383509    -0.70800
O608        O  0.61810667  0.39837463  0.10111044    -0.62000
O609        O  0.65215369  0.36721613  0.10266688    -0.74500
O610        O  0.58658153  0.36432677  0.10221134    -0.73300
Cu611      Cu  0.61959827  0.36687161  0.13985872     1.04600
Cu612      Cu  0.61937412  0.36570756  0.10119210     1.04300
C613        C  0.57637938  0.36435360  0.12036660     0.93000
C614        C  0.66247889  0.36784102  0.12077334     0.92100
C615        C  0.61802675  0.40935222  0.11880515     0.84300
C616        C  0.62111544  0.32338355  0.12224869     0.90500
O617        O  0.34461781  0.62478675  0.89410878    -0.73200
O618        O  0.41036717  0.62405839  0.89577676    -0.74200
O619        O  0.37742817  0.65694575  0.89455773    -0.62800
O620        O  0.37692334  0.59157563  0.89569159    -0.71200
O621        O  0.37814979  0.59106907  0.85957531    -0.70800
O622        O  0.37850657  0.65660479  0.85837585    -0.62000
O623        O  0.41068610  0.62369699  0.85964742    -0.74500
O624        O  0.34577410  0.62358673  0.85792473    -0.73300
Cu625      Cu  0.37734712  0.62436156  0.89632441     1.04600
Cu626      Cu  0.37832324  0.62373805  0.85764910     1.04300
C627        C  0.33494029  0.62408315  0.87565995     0.93000
C628        C  0.42091133  0.62386695  0.87777677     0.92100
C629        C  0.37792352  0.66708288  0.87637844     0.84300
C630        C  0.37721533  0.58094504  0.87777877     0.90500
O631        O  0.62949624  0.65076291  0.85651485    -0.73200
O632        O  0.62616678  0.58539532  0.85801584    -0.74200
O633        O  0.59529813  0.61986871  0.85795320    -0.62800
O634        O  0.66057205  0.61594921  0.85684562    -0.71200
O635        O  0.66116018  0.61713278  0.89302108    -0.70800
O636        O  0.59578876  0.62085720  0.89407228    -0.62000
O637        O  0.62669917  0.58620342  0.89413928    -0.74500
O638        O  0.63067062  0.65156530  0.89269152    -0.73300
Cu639      Cu  0.62785438  0.61798813  0.85607846     1.04600
Cu640      Cu  0.62857289  0.61895994  0.89474486     1.04300
C641        C  0.63073756  0.66144457  0.87434835     0.93000
C642        C  0.62599233  0.57542379  0.87630398     0.92100
C643        C  0.58517118  0.62093776  0.87612727     0.84300
C644        C  0.67115439  0.61589436  0.87480809     0.90500
O645        O  0.65543627  0.36796207  0.85691259    -0.73200
O646        O  0.58984529  0.36741662  0.86051659    -0.74200
O647        O  0.62227515  0.40068539  0.85830923    -0.62800
O648        O  0.62291675  0.33493551  0.85936677    -0.71200
O649        O  0.62669605  0.33592086  0.89534155    -0.70800
O650        O  0.62309226  0.40088166  0.89443437    -0.62000
O651        O  0.59199812  0.36688503  0.89657491    -0.74500
O652        O  0.65745049  0.37034149  0.89295936    -0.73300
Cu653      Cu  0.62254760  0.36772888  0.85748109     1.04600
Cu654      Cu  0.62485603  0.36849178  0.89604785     1.04300
C655        C  0.66676596  0.36952397  0.87435368     0.93000
C656        C  0.58051432  0.36697742  0.87914456     0.92100
C657        C  0.62246943  0.41116337  0.87634875     0.84300
C658        C  0.62517969  0.32511443  0.87762385     0.90500
O659        O  0.33977632  0.37315001  0.86586261    -0.73200
O660        O  0.40536643  0.37223297  0.86582640    -0.74200
O661        O  0.37198894  0.34020781  0.86715025    -0.62800
O662        O  0.37285787  0.40555012  0.86462268    -0.71200
O663        O  0.37267721  0.40726202  0.90071975    -0.70800
O664        O  0.37281291  0.34185216  0.90329151    -0.62000
O665        O  0.40555025  0.37427495  0.90189131    -0.74500
O666        O  0.33992229  0.37489301  0.90199681    -0.73300
Cu667      Cu  0.37250664  0.37276808  0.86461362     1.04600
Cu668      Cu  0.37273624  0.37461192  0.90323334     1.04300
C669        C  0.32950420  0.37421737  0.88394113     0.93000
C670        C  0.41587729  0.37289414  0.88383754     0.92100
C671        C  0.37245414  0.33072501  0.88568424     0.84300
C672        C  0.37266305  0.41677945  0.88218752     0.90500
C673        C  0.44010353  0.37183758  0.88381982    -0.01600
C674        C  0.45182883  0.37317146  0.90340692    -0.09600
C675        C  0.47460192  0.37200920  0.90358469    -0.18400
C676        C  0.48656342  0.36943497  0.88403629     0.04000
C677        C  0.47460621  0.36801538  0.86420584     0.18200
C678        C  0.45168798  0.36920030  0.86427392    -0.19800
C679        C  0.48558538  0.36548994  0.84437132    -0.21100
C680        C  0.50823376  0.36456414  0.84372807    -0.19600
C681        C  0.52052403  0.36605566  0.86290988     0.19600
C682        C  0.50989857  0.36835232  0.88338556     0.01700
C683        C  0.52314022  0.36955478  0.90225172    -0.14400
C684        C  0.54588155  0.36881551  0.90079314    -0.12100
C685        C  0.55630746  0.36690286  0.88055590     0.01200
C686        C  0.54343295  0.36539568  0.86168170    -0.24300
H687        H  0.44336797  0.37515113  0.91876797     0.09200
H688        H  0.48235010  0.37324137  0.91931134     0.12800
H689        H  0.44285796  0.36804697  0.84899362     0.11500
H690        H  0.47658568  0.36433964  0.82920132     0.12700
H691        H  0.51620674  0.36273711  0.82807067     0.11700
H692        H  0.51644204  0.37115565  0.91840754     0.08800
H693        H  0.55535479  0.36999135  0.91565443     0.12100
H694        H  0.55124588  0.36380725  0.84591156     0.14000
C695        C  0.62511177  0.55128170  0.87681523    -0.01600
C696        C  0.62367473  0.54019786  0.89672262    -0.09600
C697        C  0.62297239  0.51747437  0.89741230    -0.18400
C698        C  0.62373208  0.50493775  0.87807080     0.04000
C699        C  0.62532313  0.51623700  0.85789729     0.18200
C700        C  0.62593527  0.53913623  0.85744611    -0.19800
C701        C  0.62634023  0.50462290  0.83828141    -0.21100
C702        C  0.62579476  0.48196149  0.83823130    -0.19600
C703        C  0.62415130  0.47033054  0.85779063     0.19600
C704        C  0.62304706  0.48164727  0.87800634     0.01700
C705        C  0.62131351  0.46913330  0.89726963    -0.14400
C706        C  0.62094239  0.44643683  0.89650793    -0.12100
C707        C  0.62221845  0.43531014  0.87659805     0.01200
C708        C  0.62369747  0.44740733  0.85725871    -0.24300
H709        H  0.62306805  0.54912816  0.91193507     0.09200
H710        H  0.62189475  0.51025773  0.91339384     0.12800
H711        H  0.62716268  0.54750343  0.84191834     0.11500
H712        H  0.62760099  0.51313446  0.82284515     0.12700
H713        H  0.62666041  0.47346779  0.82276534     0.11700
H714        H  0.62024402  0.47634230  0.91324783     0.08800
H715        H  0.61970487  0.43755742  0.91171811     0.12100
H716        H  0.62470876  0.43898947  0.84174882     0.14000
C717        C  0.37246731  0.44090782  0.88097729    -0.01600
C718        C  0.37629130  0.45138825  0.86107133    -0.09600
C719        C  0.37666886  0.47407323  0.85968939    -0.18400
C720        C  0.37314920  0.48720326  0.87830421     0.04000
C721        C  0.36873239  0.47653355  0.89840533     0.18200
C722        C  0.36849857  0.45362703  0.89957954    -0.19800
C723        C  0.36476051  0.48878870  0.91724363    -0.21100
C724        C  0.36551131  0.51145117  0.91666019    -0.19600
C725        C  0.37030427  0.52243714  0.89723585     0.19600
C726        C  0.37403314  0.51048394  0.87772924     0.01700
C727        C  0.37871628  0.52237007  0.85854174    -0.14400
C728        C  0.37974991  0.54507211  0.85873928    -0.12100
C729        C  0.37625307  0.55680778  0.87799214     0.01200
C730        C  0.37148824  0.54534314  0.89721417    -0.24300
H731        H  0.37928455  0.44199673  0.84642283     0.09200
H732        H  0.37986304  0.48077920  0.84378150     0.12800
H733        H  0.36525026  0.44570468  0.91504052     0.11500
H734        H  0.36120973  0.48078540  0.93258610     0.12700
H735        H  0.36250551  0.52044478  0.93156207     0.11700
H736        H  0.38176010  0.51465359  0.84307286     0.08800
H737        H  0.38343771  0.55347571  0.84365400     0.12100
H738        H  0.36858472  0.55424763  0.91219750     0.14000
C739        C  0.44506852  0.62385959  0.87751918    -0.01600
C740        C  0.45605416  0.62413397  0.85749349    -0.09600
C741        C  0.47871287  0.62406697  0.85659741    -0.18400
C742        C  0.49140242  0.62369804  0.87581470     0.04000
C743        C  0.48027410  0.62336873  0.89616263     0.18200
C744        C  0.45732037  0.62352122  0.89684203    -0.19800
C745        C  0.49214996  0.62277570  0.91566137    -0.21100
C746        C  0.51484601  0.62234886  0.91540067    -0.19600
C747        C  0.52626032  0.62263168  0.89563643     0.19600
C748        C  0.51468575  0.62346901  0.87554912     0.01700
C749        C  0.52695313  0.62398065  0.85606008    -0.14400
C750        C  0.54964119  0.62329854  0.85645086    -0.12100
C751        C  0.56103606  0.62215472  0.87621791     0.01200
C752        C  0.54920148  0.62198241  0.89579776    -0.24300
H753        H  0.44708378  0.62438093  0.84229067     0.09200
H754        H  0.48577514  0.62419048  0.84044129     0.12800
H755        H  0.44900536  0.62327322  0.91245274     0.11500
H756        H  0.48381718  0.62252180  0.93123850     0.12700
H757        H  0.52354390  0.62176027  0.93078601     0.11700
H758        H  0.51952594  0.62489524  0.84007836     0.08800
H759        H  0.55831127  0.62361656  0.84109339     0.12100
H760        H  0.55783732  0.62117654  0.91123310     0.14000
C761        C  0.61780324  0.43350715  0.11796640    -0.01600
C762        C  0.61787721  0.44449111  0.09791806    -0.09600
C763        C  0.61820519  0.46725468  0.09704436    -0.18400
C764        C  0.61851852  0.47988269  0.11633516     0.04000
C765        C  0.61850092  0.46863140  0.13661757     0.18200
C766        C  0.61803662  0.44575894  0.13724223    -0.19800
C767        C  0.61912865  0.48024205  0.15622513    -0.21100
C768        C  0.61991241  0.50285812  0.15618761    -0.19600
C769        C  0.61989205  0.51445249  0.13654450     0.19600
C770        C  0.61903329  0.50320220  0.11630048     0.01700
C771        C  0.61873890  0.51582945  0.09698258    -0.14400
C772        C  0.61958405  0.53858872  0.09778993    -0.12100
C773        C  0.62074156  0.54955217  0.11779426     0.01200
C774        C  0.62077487  0.53730495  0.13709863    -0.24300
H775        H  0.61781007  0.43545954  0.08275309     0.09200
H776        H  0.61839289  0.47444790  0.08102459     0.12800
H777        H  0.61806088  0.43748249  0.15286502     0.11500
H778        H  0.61914934  0.47175784  0.17172965     0.12700
H779        H  0.62052769  0.51135266  0.17166669     0.11700
H780        H  0.61783561  0.50863404  0.08099487     0.08800
H781        H  0.61940000  0.54762834  0.08261796     0.12100
H782        H  0.62157555  0.54556385  0.15270136     0.14000
C783        C  0.44185448  0.62198478  0.12527401    -0.01600
C784        C  0.45315104  0.62295341  0.14511709    -0.09600
C785        C  0.47592164  0.62337460  0.14557623    -0.18400
C786        C  0.48819739  0.62268195  0.12606748     0.04000
C787        C  0.47660209  0.62161320  0.10600974     0.18200
C788        C  0.45374146  0.62148708  0.10579370    -0.19800
C789        C  0.48785853  0.62036657  0.08623251    -0.21100
C790        C  0.51048107  0.61981544  0.08590179    -0.19600
C791        C  0.52241081  0.62084500  0.10532089     0.19600
C792        C  0.51150216  0.62262438  0.12569163     0.01700
C793        C  0.52443555  0.62415974  0.14473849    -0.14400
C794        C  0.54716829  0.62329846  0.14360853    -0.12100
C795        C  0.55779168  0.62096864  0.12353312     0.01200
C796        C  0.54525446  0.61997904  0.10444051    -0.24300
H797        H  0.44436691  0.62336764  0.16041896     0.09200
H798        H  0.48340401  0.62395246  0.16146113     0.12800
H799        H  0.44519154  0.62067420  0.09033267     0.11500
H800        H  0.47909159  0.61953126  0.07090221     0.12700
H801        H  0.51871250  0.61854883  0.07032282     0.11700
H802        H  0.51750421  0.62605770  0.16075780     0.08800
H803        H  0.55646080  0.62440681  0.15859019     0.12100
H804        H  0.55327291  0.61833149  0.08877872     0.14000
C805        C  0.43630618  0.36602552  0.12270284    -0.01600
C806        C  0.44790630  0.36735513  0.14231358    -0.09600
C807        C  0.47057770  0.36616111  0.14260605    -0.18400
C808        C  0.48262615  0.36360184  0.12313898     0.04000
C809        C  0.47088245  0.36234052  0.10318687     0.18200
C810        C  0.44793518  0.36340900  0.10314129    -0.19800
C811        C  0.48214599  0.36032406  0.08342450    -0.21100
C812        C  0.50486385  0.36004929  0.08302569    -0.19600
C813        C  0.51688896  0.36143616  0.10240857     0.19600
C814        C  0.50589964  0.36273962  0.12276903     0.01700
C815        C  0.51869830  0.36327300  0.14192406    -0.14400
C816        C  0.54136607  0.36351857  0.14090645    -0.12100
C817        C  0.55222961  0.36315111  0.12084947     0.01200
C818        C  0.53985435  0.36174195  0.10160394    -0.24300
H819        H  0.43942491  0.36945999  0.15765178     0.09200
H820        H  0.47814625  0.36764222  0.15838804     0.12800
H821        H  0.43916161  0.36240656  0.08782503     0.11500
H822        H  0.47333460  0.35929503  0.06813895     0.12700
H823        H  0.51308103  0.35884590  0.06744097     0.11700
H824        H  0.51174420  0.36351415  0.15804115     0.08800
H825        H  0.55043345  0.36419678  0.15605469     0.12100
H826        H  0.54805904  0.36109565  0.08597222     0.14000
C827        C  0.37207519  0.43711903  0.11932081    -0.01600
C828        C  0.37561074  0.44792020  0.09949422    -0.09600
C829        C  0.37648996  0.47073600  0.09859951    -0.18400
C830        C  0.37372072  0.48352458  0.11762417     0.04000
C831        C  0.37008449  0.47238633  0.13762977     0.18200
C832        C  0.36934085  0.44955901  0.13827918    -0.19800
C833        C  0.36717956  0.48404453  0.15699181    -0.21100
C834        C  0.36786847  0.50663269  0.15702478    -0.19600
C835        C  0.37142784  0.51815878  0.13768884     0.19600
C836        C  0.37436922  0.50687824  0.11764945     0.01700
C837        C  0.37773549  0.51953497  0.09863421    -0.14400
C838        C  0.37806904  0.54236040  0.09956579    -0.12100
C839        C  0.37520060  0.55331050  0.11942457     0.01200
C840        C  0.37195390  0.54099709  0.13838496    -0.24300
H841        H  0.37783636  0.43870707  0.08460363     0.09200
H842        H  0.37936397  0.47788132  0.08281254     0.12800
H843        H  0.36648627  0.44144953  0.15372600     0.11500
H844        H  0.36436451  0.47561650  0.17226884     0.12700
H845        H  0.36556600  0.51516550  0.17232461     0.11700
H846        H  0.38008319  0.51228101  0.08281482     0.08800
H847        H  0.38062924  0.55145974  0.08465346     0.12100
H848        H  0.36960985  0.54922231  0.15385384     0.14000
C849        C  0.80750590  0.61774009  0.11927565    -0.01600
C850        C  0.79606107  0.63085799  0.10453893    -0.09600
C851        C  0.77339695  0.62964536  0.10302942    -0.18400
C852        C  0.76134680  0.61559393  0.11675572     0.04000
C853        C  0.77300241  0.60296101  0.13234979     0.18200
C854        C  0.79593641  0.60365334  0.13303573    -0.19800
C855        C  0.76165450  0.59014872  0.14745112    -0.21100
C856        C  0.73894183  0.59006780  0.14774748    -0.19600
C857        C  0.72703466  0.60201878  0.13232309     0.19600
C858        C  0.73811323  0.61423668  0.11605858     0.01700
C859        C  0.72545432  0.62451402  0.09973737    -0.14400
C860        C  0.70273006  0.62374577  0.10028342    -0.12100
C861        C  0.69185088  0.61303697  0.11721368     0.01200
C862        C  0.70409586  0.60193406  0.13306122    -0.24300
H863        H  0.80475040  0.64195837  0.09390273     0.09200
H864        H  0.76572750  0.64040116  0.09142401     0.12800
H865        H  0.80476962  0.59379454  0.14477986     0.11500
H866        H  0.77039487  0.58058155  0.15948351     0.12700
H867        H  0.73063534  0.58047400  0.16002910     0.11700
H868        H  0.73265458  0.63306858  0.08619049     0.08800
H869        H  0.69360163  0.63211612  0.08766385     0.12100
H870        H  0.69575349  0.59311357  0.14589874     0.14000
C871        C  0.81087355  0.61393067  0.87295040    -0.01600
C872        C  0.79978168  0.59861212  0.86022480    -0.09600
C873        C  0.77700553  0.59772552  0.86036723    -0.18400
C874        C  0.76464175  0.61195526  0.87368265     0.04000
C875        C  0.77614481  0.62656157  0.88752586     0.18200
C876        C  0.79898684  0.62773112  0.88669225    -0.19800
C877        C  0.76479775  0.63996295  0.90208138    -0.21100
C878        C  0.74217066  0.63939596  0.90302623    -0.19600
C879        C  0.73031689  0.62596660  0.88891527     0.19600
C880        C  0.74133832  0.61225724  0.87379897     0.01700
C881        C  0.72853410  0.59998880  0.85903950    -0.14400
C882        C  0.70579206  0.60137526  0.85928996    -0.12100
C883        C  0.69512162  0.61449638  0.87457287     0.01200
C884        C  0.70744236  0.62654251  0.88951046    -0.24300
H885        H  0.80875522  0.58761031  0.84972014     0.09200
H886        H  0.76956103  0.58560109  0.85007102     0.12800
H887        H  0.80759954  0.63924410  0.89698084     0.11500
H888        H  0.77349379  0.65092472  0.91286659     0.12700
H889        H  0.73386223  0.64992361  0.91452738     0.11700
H890        H  0.73561831  0.58963915  0.84674430     0.08800
H891        H  0.69647133  0.59195624  0.84761446     0.12100
H892        H  0.69917763  0.63696968  0.90115623     0.14000
C893        C  0.87853042  0.61699380  0.93837431    -0.01600
C894        C  0.88010661  0.59719976  0.94967966    -0.09600
C895        C  0.88006865  0.59671825  0.97246388    -0.18400
C896        C  0.87838908  0.61615927  0.98477287     0.04000
C897        C  0.87688980  0.63619103  0.97318922     0.18200
C898        C  0.87698080  0.63642131  0.95031462    -0.19800
C899        C  0.87523432  0.65593881  0.98446944    -0.21100
C900        C  0.87493669  0.65627924  0.00709426    -0.19600
C901        C  0.87624049  0.63687769  0.01901584     0.19600
C902        C  0.87803522  0.61650736  0.00808876     0.01700
C903        C  0.87926886  0.59743613  0.02101621    -0.14400
C904        C  0.87856280  0.59858426  0.04375158    -0.12100
C905        C  0.87667359  0.61870252  0.05440560     0.01200
C906        C  0.87563315  0.63778402  0.04186864    -0.24300
H907        H  0.88136789  0.58194426  0.94088613     0.09200
H908        H  0.88133683  0.58086780  0.97992923     0.12800
H909        H  0.87573945  0.65186433  0.94179232     0.11500
H910        H  0.87410860  0.67125711  0.97572028     0.12700
H911        H  0.87358598  0.67185085  0.01533318     0.11700
H912        H  0.88070735  0.58136930  0.01407876     0.08800
H913        H  0.87948904  0.58358007  0.05302079     0.12100
H914        H  0.87420815  0.65346485  0.04989739     0.14000
C915        C  0.31105674  0.62356005  0.87468412    -0.01600
C916        C  0.30060854  0.60833239  0.86135953    -0.09600
C917        C  0.27790253  0.60746229  0.86039066    -0.18400
C918        C  0.26496114  0.62228844  0.87241494     0.04000
C919        C  0.27580865  0.63837640  0.88512483     0.18200
C920        C  0.29865550  0.63851250  0.88657883    -0.19800
C921        C  0.26380652  0.65436016  0.89610443    -0.21100
C922        C  0.24119004  0.65474260  0.89474802    -0.19600
C923        C  0.23000623  0.63869683  0.88301671     0.19600
C924        C  0.24169108  0.62194699  0.87204994     0.01700
C925        C  0.22954945  0.60539156  0.86154695    -0.14400
C926        C  0.20678569  0.60571733  0.86164343    -0.12100
C927        C  0.19542836  0.62269855  0.87179410     0.01200
C928        C  0.20713682  0.63916217  0.88240741    -0.24300
H929        H  0.31008735  0.59682213  0.85188322     0.09200
H930        H  0.27098961  0.59531475  0.84975879     0.12800
H931        H  0.30685696  0.65062298  0.89651059     0.11500
H932        H  0.27198288  0.66680794  0.90560448     0.12700
H933        H  0.23235985  0.66748713  0.90322871     0.11700
H934        H  0.23714716  0.59174943  0.85349692     0.08800
H935        H  0.19801697  0.59275654  0.85346984     0.12100
H936        H  0.19838753  0.65213694  0.89064998     0.14000
C937        C  0.06108860  0.62592468  0.87133072    -0.01600
C938        C  0.04968584  0.64517150  0.86661204    -0.09600
C939        C  0.02688261  0.64559198  0.86665099    -0.18400
C940        C  0.01465550  0.62666378  0.87156608     0.04000
C941        C  0.02635523  0.60725898  0.87659159     0.18200
C942        C  0.04924964  0.60705702  0.87637474    -0.19800
C943        C  0.01516617  0.58807702  0.88172537    -0.21100
C944        C  0.99252994  0.58759411  0.88166252    -0.19600
C945        C  0.98049273  0.60628990  0.87649965     0.19600
C946        C  0.99131144  0.62618124  0.87156124     0.01700
C947        C  0.97824333  0.64461571  0.86675662    -0.14400
C948        C  0.95547346  0.64324004  0.86666346    -0.12100
C949        C  0.94494448  0.62349422  0.87119068     0.01200
C950        C  0.95762801  0.60512015  0.87618264    -0.24300
H951        H  0.05842203  0.65998673  0.86266072     0.09200
H952        H  0.01932829  0.66095767  0.86269224     0.12800
H953        H  0.05787636  0.59210023  0.88023063     0.11500
H954        H  0.02399544  0.57327425  0.88568783     0.12700
H955        H  0.98437001  0.57242559  0.88557670     0.11700
H956        H  0.98510324  0.66032095  0.86296738     0.08800
H957        H  0.94607295  0.65770136  0.86280782     0.12100
H958        H  0.94968103  0.58979542  0.87994941     0.14000
C959        C  0.30790593  0.61917904  0.12160195    -0.01600
C960        C  0.29668278  0.60272355  0.13260344    -0.09600
C961        C  0.27395546  0.60181061  0.13190836    -0.18400
C962        C  0.26174600  0.61783442  0.12060089     0.04000
C963        C  0.27334449  0.63487635  0.10999681     0.18200
C964        C  0.29623925  0.63507179  0.11011993    -0.19800
C965        C  0.26203094  0.65184306  0.09972290    -0.21100
C966        C  0.23937377  0.65251264  0.10011489    -0.19600
C967        C  0.22747416  0.63584766  0.11014893     0.19600
C968        C  0.23847194  0.61791612  0.11995552     0.01700
C969        C  0.22567543  0.60084121  0.12864015    -0.14400
C970        C  0.20295660  0.60195412  0.12832819    -0.12100
C971        C  0.19223999  0.62016169  0.11964761     0.01200
C972        C  0.20459295  0.63700060  0.11044038    -0.24300
H973        H  0.30557882  0.59034562  0.14157083     0.09200
H974        H  0.26642866  0.58870841  0.14083943     0.12800
H975        H  0.30502574  0.64799488  0.10185965     0.11500
H976        H  0.27077738  0.66493417  0.09172282     0.12700
H977        H  0.23109443  0.66611174  0.09241565     0.11700
H978        H  0.23271614  0.58629786  0.13555839     0.08800
H979        H  0.19371867  0.58861531  0.13528338     0.12100
H980        H  0.19636458  0.65091200  0.10323622     0.14000
C981        C  0.05792782  0.62607411  0.12205180    -0.01600
C982        C  0.04688510  0.64604419  0.12357833    -0.09600
C983        C  0.02409089  0.64686843  0.12363327    -0.18400
C984        C  0.01150070  0.62761184  0.12210474     0.04000
C985        C  0.02282940  0.60742057  0.12050064     0.18200
C986        C  0.04571239  0.60684422  0.12051218    -0.19800
C987        C  0.01128423  0.58784039  0.11890429    -0.21100
C988        C  0.98865463  0.58779200  0.11899052    -0.19600
C989        C  0.97697746  0.60732326  0.12065057     0.19600
C990        C  0.98815040  0.62756691  0.12215030     0.01700
C991        C  0.97540637  0.64677565  0.12364162    -0.14400
C992        C  0.95260101  0.64583837  0.12371509    -0.12100
C993        C  0.94172350  0.62579540  0.12237266     0.01200
C994        C  0.95411114  0.60663581  0.12081958    -0.24300
H995        H  0.05589510  0.66116775  0.12478526     0.09200
H996        H  0.01682263  0.66282414  0.12491016     0.12800
H997        H  0.05402885  0.59128163  0.11924778     0.11500
H998        H  0.01982923  0.57241206  0.11762913     0.12700
H999        H  0.98021079  0.57232355  0.11778150     0.11700
H1000       H  0.98256107  0.66277840  0.12476234     0.08800
H1001       H  0.94345771  0.66090588  0.12488071     0.12100
H1002       H  0.94593402  0.59101147  0.11964740     0.14000
C1003       C  0.12735427  0.62404863  0.93828866    -0.01600
C1004       C  0.12214997  0.64331101  0.94936351    -0.09600
C1005       C  0.12108252  0.64379491  0.97203540    -0.18400
C1006       C  0.12536720  0.62491141  0.98455070     0.04000
C1007       C  0.13103485  0.60545332  0.97328998     0.18200
C1008       C  0.13178555  0.60513679  0.95037985    -0.19800
C1009       C  0.13602355  0.58647256  0.98496487    -0.21100
C1010       C  0.13552885  0.58638616  0.00763200    -0.19600
C1011       C  0.12977607  0.60520608  0.01917975     0.19600
C1012       C  0.12444689  0.62470978  0.00780606     0.01700
C1013       C  0.11842674  0.64317216  0.02022323    -0.14400
C1014       C  0.11829648  0.64245238  0.04291691    -0.12100
C1015       C  0.12389783  0.62333391  0.05406073     0.01200
C1016       C  0.12941180  0.60467344  0.04208295    -0.24300
H1017       H  0.11867106  0.65816659  0.94044574     0.09200
H1018       H  0.11700594  0.65927820  0.97921315     0.12800
H1019       H  0.13602027  0.59017817  0.94197177     0.11500
H1020       H  0.14046092  0.57160743  0.97650563     0.12700
H1021       H  0.13962406  0.57147091  0.01619065     0.11700
H1022       H  0.11369654  0.65843891  0.01295869     0.08800
H1023       H  0.11368393  0.65700553  0.05179638     0.12100
H1024       H  0.13376577  0.58979322  0.05059084     0.14000
C1025       C  0.62329345  0.18390328  0.12681983    -0.01600
C1026       C  0.60878482  0.19424729  0.11261878    -0.09600
C1027       C  0.60810358  0.21690344  0.11122924    -0.18400
C1028       C  0.62169914  0.22999539  0.12446883     0.04000
C1029       C  0.63577865  0.21937637  0.13955410     0.18200
C1030       C  0.63686296  0.19649064  0.14019925    -0.19800
C1031       C  0.64842171  0.23166774  0.15405359    -0.21100
C1032       C  0.64724163  0.25433393  0.15400009    -0.19600
C1033       C  0.63404551  0.26526006  0.13887377     0.19600
C1034       C  0.62152391  0.25322435  0.12351510     0.01700
C1035       C  0.60964491  0.26495489  0.10759424    -0.14400
C1036       C  0.60985115  0.28764817  0.10721596    -0.12100
C1037       C  0.62148053  0.29941073  0.12286445     0.01200
C1038       C  0.63348380  0.28818050  0.13876283    -0.24300
H1039       H  0.59810030  0.18471305  0.10227158     0.09200
H1040       H  0.59639918  0.22365715  0.09998245     0.12800
H1041       H  0.64783299  0.18843918  0.15151788     0.11500
H1042       H  0.65904013  0.22369128  0.16573203     0.12700
H1043       H  0.65697241  0.26338381  0.16563842     0.11700
H1044       H  0.60041812  0.25709058  0.09488851     0.08800
H1045       H  0.60058492  0.29608772  0.09473936     0.12100
H1046       H  0.64283668  0.29730082  0.15066967     0.14000
C1047       C  0.62593108  0.30110929  0.87844175    -0.01600
C1048       C  0.63837578  0.29056207  0.89442561    -0.09600
C1049       C  0.63896119  0.26784691  0.89562189    -0.18400
C1050       C  0.62664005  0.25492315  0.88104371     0.04000
C1051       C  0.61336986  0.26579834  0.86539951     0.18200
C1052       C  0.61357509  0.28864420  0.86387456    -0.19800
C1053       C  0.59973047  0.25383297  0.85158369    -0.21100
C1054       C  0.59894518  0.23123836  0.85295909    -0.19600
C1055       C  0.61243482  0.22001191  0.86756202     0.19600
C1056       C  0.62681481  0.23164659  0.88154338     0.01700
C1057       C  0.64111580  0.21944541  0.89497099    -0.14400
C1058       C  0.64114651  0.19668783  0.89440125    -0.12100
C1059       C  0.62656412  0.18542864  0.88098015     0.01200
C1060       C  0.61201888  0.19714340  0.86786379    -0.24300
H1061       H  0.64787158  0.29995487  0.90598092     0.09200
H1062       H  0.64880838  0.26090865  0.90843192     0.12800
H1063       H  0.60355097  0.29678891  0.85177253     0.11500
H1064       H  0.58940048  0.26202754  0.83979278     0.12700
H1065       H  0.58804834  0.22244929  0.84217851     0.11700
H1066       H  0.65289911  0.22699890  0.90558651     0.08800
H1067       H  0.65252741  0.18782034  0.90462605     0.12100
H1068       H  0.60093367  0.18839365  0.85721925     0.14000
C1069       C  0.62781958  0.11574381  0.06175268    -0.01600
C1070       C  0.64715206  0.12092660  0.05082173    -0.09600
C1071       C  0.64785769  0.12144686  0.02808414    -0.18400
C1072       C  0.62912829  0.11665589  0.01545909     0.04000
C1073       C  0.60964355  0.11107363  0.02666447     0.18200
C1074       C  0.60915922  0.11071140  0.04952943    -0.19800
C1075       C  0.59069139  0.10598251  0.01501033    -0.21100
C1076       C  0.59058136  0.10646684  0.99236502    -0.19600
C1077       C  0.60942693  0.11203838  0.98080965     0.19600
C1078       C  0.62900139  0.11718422  0.99217310     0.01700
C1079       C  0.64758119  0.12262957  0.97970683    -0.14400
C1080       C  0.64681025  0.12269347  0.95700135    -0.12100
C1081       C  0.62753559  0.11755528  0.94587137     0.01200
C1082       C  0.60882942  0.11239963  0.95790239    -0.24300
H1083       H  0.66178668  0.12490802  0.05988079     0.09200
H1084       H  0.66329432  0.12572698  0.02094148     0.12800
H1085       H  0.59413596  0.10651008  0.05782746     0.11500
H1086       H  0.57581068  0.10164097  0.02347789     0.12700
H1087       H  0.57563283  0.10246337  0.98382643     0.11700
H1088       H  0.66299243  0.12688188  0.98695194     0.08800
H1089       H  0.66145234  0.12694995  0.94810177     0.12100
H1090       H  0.59383978  0.10837487  0.94943331     0.14000
C1091       C  0.63362159  0.80115899  0.87454624    -0.01600
C1092       C  0.65040642  0.78992340  0.88519471    -0.09600
C1093       C  0.65104082  0.76716785  0.88516406    -0.18400
C1094       C  0.63501425  0.75488436  0.87402702     0.04000
C1095       C  0.61868937  0.76644515  0.86224919     0.18200
C1096       C  0.61783207  0.78933769  0.86303818    -0.19800
C1097       C  0.60337203  0.75509022  0.84971431    -0.21100
C1098       C  0.60383191  0.73244117  0.84870037    -0.19600
C1099       C  0.61906471  0.72055259  0.86088695     0.19600
C1100       C  0.63463630  0.73158899  0.87406672     0.01700
C1101       C  0.64868767  0.71881963  0.88721821    -0.14400
C1102       C  0.64724895  0.69610271  0.88728774    -0.12100
C1103       C  0.63230258  0.68538627  0.87383341     0.01200
C1104       C  0.61846305  0.69764561  0.86042114    -0.24300
H1105       H  0.66288605  0.79879094  0.89400246     0.09200
H1106       H  0.66444808  0.75967512  0.89373029     0.12800
H1107       H  0.60506170  0.79801239  0.85437826     0.11500
H1108       H  0.59104092  0.76379774  0.84049434     0.12700
H1109       H  0.59184368  0.72414406  0.83872051     0.11700
H1110       H  0.66049070  0.72591566  0.89812373     0.08800
H1111       H  0.65800861  0.68681515  0.89781136     0.12100
H1112       H  0.60662616  0.68932494  0.85025894     0.14000
C1113       C  0.62758317  0.05129304  0.87805716    -0.01600
C1114       C  0.60777744  0.04000601  0.87946503    -0.09600
C1115       C  0.60730858  0.01729366  0.88023465    -0.18400
C1116       C  0.62677682  0.00494966  0.87958202     0.04000
C1117       C  0.64684098  0.01643488  0.87783898     0.18200
C1118       C  0.64707818  0.03934850  0.87720442    -0.19800
C1119       C  0.66656022  0.00498586  0.87668462    -0.21100
C1120       C  0.66680680  0.98232760  0.87710962    -0.19600
C1121       C  0.64735973  0.97054553  0.87895042     0.19600
C1122       C  0.62705824  0.98166213  0.88041500     0.01700
C1123       C  0.60794993  0.96895374  0.88265690    -0.14400
C1124       C  0.60893979  0.94622322  0.88290674    -0.12100
C1125       C  0.62892921  0.93532684  0.88103630     0.01200
C1126       C  0.64810951  0.94765341  0.87924080    -0.24300
H1127       H  0.59244554  0.04876752  0.88009401     0.09200
H1128       H  0.59140717  0.00992747  0.88123503     0.12800
H1129       H  0.66250809  0.04787632  0.87604185     0.11500
H1130       H  0.68190879  0.01361639  0.87531681     0.12700
H1131       H  0.68234388  0.97395371  0.87602399     0.11700
H1132       H  0.59195543  0.97604215  0.88426643     0.08800
H1133       H  0.59388831  0.93713894  0.88448801     0.12100
H1134       H  0.66370715  0.93943119  0.87783637     0.14000
C1135       C  0.62757789  0.79935828  0.12856168    -0.01600
C1136       C  0.64300798  0.78781618  0.14079440    -0.09600
C1137       C  0.64339956  0.76506658  0.14055900    -0.18400
C1138       C  0.62860991  0.75310159  0.12753109     0.04000
C1139       C  0.61353735  0.76497882  0.11446003     0.18200
C1140       C  0.61275674  0.78786642  0.11554200    -0.19800
C1141       C  0.59964365  0.75396002  0.10009647    -0.21100
C1142       C  0.60055865  0.73137332  0.09824447    -0.19600
C1143       C  0.61474164  0.71917793  0.11136801     0.19600
C1144       C  0.62854078  0.72982546  0.12665293     0.01700
C1145       C  0.64136774  0.71668409  0.14065453    -0.14400
C1146       C  0.64077144  0.69397173  0.13924045    -0.12100
C1147       C  0.62785435  0.68364233  0.12354608     0.01200
C1148       C  0.61495650  0.69633189  0.10956397    -0.24300
H1149       H  0.65474324  0.79646168  0.15077020     0.09200
H1150       H  0.65585059  0.75733405  0.15028544     0.12800
H1151       H  0.60110557  0.79680792  0.10566126     0.11500
H1152       H  0.58825483  0.76290263  0.08993974     0.12700
H1153       H  0.58984465  0.72335866  0.08670657     0.11700
H1154       H  0.65159599  0.72345299  0.15323447     0.08800
H1155       H  0.65064703  0.68441273  0.15036424     0.12100
H1156       H  0.60452928  0.68835114  0.09772491     0.14000
C1157       C  0.62875357  0.93375770  0.12818768    -0.01600
C1158       C  0.64854224  0.94511707  0.12899111    -0.09600
C1159       C  0.64892481  0.96787182  0.12921208    -0.18400
C1160       C  0.62938198  0.98014963  0.12864185     0.04000
C1161       C  0.60934703  0.96855957  0.12752657     0.18200
C1162       C  0.60921069  0.94565349  0.12734232    -0.19800
C1163       C  0.58953347  0.97988424  0.12665473    -0.21100
C1164       C  0.58914268  0.00254039  0.12692256    -0.19600
C1165       C  0.60855245  0.01445340  0.12818742     0.19600
C1166       C  0.62896887  0.00345359  0.12912585     0.01700
C1167       C  0.64805167  0.01628726  0.13060033    -0.14400
C1168       C  0.64690838  0.03900008  0.13093673    -0.12100
C1169       C  0.62679045  0.04979048  0.12983151     0.01200
C1170       C  0.60764687  0.03735365  0.12851608    -0.24300
H1171       H  0.66389571  0.93638390  0.12953710     0.09200
H1172       H  0.66481002  0.97532482  0.12982590     0.12800
H1173       H  0.59377459  0.93708003  0.12660130     0.11500
H1174       H  0.57420498  0.97114950  0.12575568     0.12700
H1175       H  0.57352655  0.01080569  0.12620224     0.11700
H1176       H  0.66415544  0.00930616  0.13155975     0.08800
H1177       H  0.66196076  0.04815689  0.13201070     0.12100
H1178       H  0.59196042  0.04548819  0.12767470     0.14000
C1179       C  0.63157287  0.86451926  0.94529670    -0.01600
C1180       C  0.65136891  0.86457779  0.95671072    -0.09600
C1181       C  0.65175566  0.86437337  0.97945570    -0.18400
C1182       C  0.63220721  0.86417344  0.99168234     0.04000
C1183       C  0.61215170  0.86367583  0.98003868     0.18200
C1184       C  0.61200982  0.86383708  0.95712313    -0.19800
C1185       C  0.59232978  0.86321718  0.99132678    -0.21100
C1186       C  0.59195426  0.86345985  0.01399139    -0.19600
C1187       C  0.61138852  0.86424281  0.02595652     0.19600
C1188       C  0.63181475  0.86457490  0.01498885     0.01700
C1189       C  0.65093555  0.86548885  0.02785367    -0.14400
C1190       C  0.64981714  0.86601438  0.05055870    -0.12100
C1191       C  0.62968666  0.86566015  0.06133891     0.01200
C1192       C  0.61050554  0.86477119  0.04886949    -0.24300
H1193       H  0.66673651  0.86494751  0.94803005     0.09200
H1194       H  0.66765480  0.86447794  0.98693959     0.12800
H1195       H  0.59656822  0.86367185  0.94849859     0.11500
H1196       H  0.57698516  0.86276286  0.98255872     0.12700
H1197       H  0.57632551  0.86316064  0.02222348     0.11700
H1198       H  0.66705823  0.86590205  0.02090719     0.08800
H1199       H  0.66490799  0.86672954  0.05972059     0.12100
H1200       H  0.59480910  0.86447823  0.05698963     0.14000
C1201       C  0.30543470  0.37502820  0.88392163    -0.01600
C1202       C  0.29433150  0.38640288  0.90027577    -0.09600
C1203       C  0.27164493  0.38829960  0.89978167    -0.18400
C1204       C  0.25926121  0.37845238  0.88300618     0.04000
C1205       C  0.27054833  0.36588146  0.86713862     0.18200
C1206       C  0.29344104  0.36471316  0.86743430    -0.19800
C1207       C  0.25891163  0.35448504  0.85115262    -0.21100
C1208       C  0.23624209  0.35522857  0.85063745    -0.19600
C1209       C  0.22471069  0.36812497  0.86551722     0.19600
C1210       C  0.23609352  0.38040404  0.88155550     0.01700
C1211       C  0.22383207  0.39450256  0.89508562    -0.14400
C1212       C  0.20120399  0.39597639  0.89303275    -0.12100
C1213       C  0.19006583  0.38308121  0.87792220     0.01200
C1214       C  0.20184643  0.36910539  0.86425976    -0.24300
H1215       H  0.30328683  0.39430452  0.91328913     0.09200
H1216       H  0.26424094  0.39727228  0.91294261     0.12800
H1217       H  0.30194632  0.35548361  0.85498583     0.11500
H1218       H  0.26739049  0.34470511  0.83912862     0.12700
H1219       H  0.22769120  0.34598472  0.83824806     0.11700
H1220       H  0.23131071  0.40498648  0.90703254     0.08800
H1221       H  0.19229629  0.40700186  0.90357592     0.12100
H1222       H  0.19321519  0.35944514  0.85222989     0.14000
C1223       C  0.30202187  0.37400330  0.12433608    -0.01600
C1224       C  0.29029940  0.36369732  0.10770709    -0.09600
C1225       C  0.26763180  0.36508816  0.10680949    -0.18400
C1226       C  0.25584970  0.37724017  0.12243979     0.04000
C1227       C  0.26786750  0.38851072  0.13875071     0.18200
C1228       C  0.29071421  0.38636307  0.13989706    -0.19800
C1229       C  0.25701221  0.40204864  0.15359130    -0.21100
C1230       C  0.23445831  0.40460979  0.15258492    -0.19600
C1231       C  0.22209591  0.39298468  0.13731377     0.19600
C1232       C  0.23260776  0.37876450  0.12231360     0.01700
C1233       C  0.21936435  0.36618622  0.10825282    -0.14400
C1234       C  0.19669563  0.36769904  0.10905673    -0.12100
C1235       C  0.18645775  0.38215082  0.12340140     0.01200
C1236       C  0.19921869  0.39501789  0.13729679    -0.24300
H1237       H  0.29872796  0.35431724  0.09534041     0.09200
H1238       H  0.25985471  0.35686925  0.09337705     0.12800
H1239       H  0.29975891  0.39482367  0.15250703     0.11500
H1240       H  0.26605271  0.41090796  0.16591255     0.12700
H1241       H  0.22657869  0.41537427  0.16416659     0.11700
H1242       H  0.22598075  0.35450231  0.09693519     0.08800
H1243       H  0.18706488  0.35755066  0.09827525     0.12100
H1244       H  0.19128076  0.40595206  0.14869703     0.14000
C1245       C  0.11942105  0.38690542  0.05700136    -0.01600
C1246       C  0.11763186  0.40695992  0.04618343    -0.09600
C1247       C  0.11738973  0.40800605  0.02341300    -0.18400
C1248       C  0.11903515  0.38889063  0.01060210     0.04000
C1249       C  0.12084059  0.36859463  0.02168180     0.18200
C1250       C  0.12099653  0.36779239  0.04456712    -0.19800
C1251       C  0.12249935  0.34915239  0.00988143    -0.21100
C1252       C  0.12242530  0.34936684  0.98724255    -0.19600
C1253       C  0.12076230  0.36903354  0.97580378     0.19600
C1254       C  0.11903428  0.38911664  0.98726258     0.01700
C1255       C  0.11752273  0.40848763  0.97481470    -0.14400
C1256       C  0.11792652  0.40789752  0.95203750    -0.12100
C1257       C  0.11973206  0.38805522  0.94084048     0.01200
C1258       C  0.12099963  0.36868191  0.95290624    -0.24300
H1259       H  0.11628823  0.42198411  0.05535837     0.09200
H1260       H  0.11588466  0.42401739  0.01635514     0.12800
H1261       H  0.12243194  0.35216397  0.05271165     0.11500
H1262       H  0.12388329  0.33363429  0.01823196     0.12700
H1263       H  0.12376648  0.33401100  0.97860671     0.11700
H1264       H  0.11614721  0.42436857  0.98216683     0.08800
H1265       H  0.11687923  0.42313219  0.94316163     0.12100
H1266       H  0.12244000  0.35321757  0.94446913     0.14000
C1267       C  0.80659058  0.37426389  0.87045150    -0.01600
C1268       C  0.79591721  0.35812820  0.85839817    -0.09600
C1269       C  0.77317436  0.35670721  0.85847890    -0.18400
C1270       C  0.76039799  0.37118849  0.87110470     0.04000
C1271       C  0.77146023  0.38664116  0.88437107     0.18200
C1272       C  0.79429398  0.38838741  0.88352286    -0.19800
C1273       C  0.75967249  0.40018695  0.89845302    -0.21100
C1274       C  0.73707017  0.39872090  0.89965724    -0.19600
C1275       C  0.72563360  0.38430154  0.88616867     0.19600
C1276       C  0.73709235  0.37072509  0.87127246     0.01700
C1277       C  0.72469246  0.35767143  0.85685537    -0.14400
C1278       C  0.70191351  0.35771503  0.85761611    -0.12100
C1279       C  0.69079804  0.37028166  0.87306078     0.01200
C1280       C  0.70274717  0.38354811  0.88730079    -0.24300
H1281       H  0.80519622  0.34685197  0.84846191     0.09200
H1282       H  0.76606852  0.34389211  0.84878890     0.12800
H1283       H  0.80257600  0.40053223  0.89333963     0.11500
H1284       H  0.76801166  0.41182741  0.90879339     0.12700
H1285       H  0.72844223  0.40923338  0.91093237     0.11700
H1286       H  0.73212473  0.34762054  0.84450901     0.08800
H1287       H  0.69293387  0.34752039  0.84633195     0.12100
H1288       H  0.69415504  0.39367650  0.89896798     0.14000
C1289       C  0.94040872  0.38592040  0.86606163    -0.01600
C1290       C  0.95066330  0.40616944  0.86853352    -0.09600
C1291       C  0.97340163  0.40783181  0.86829316    -0.18400
C1292       C  0.98668957  0.38916245  0.86549545     0.04000
C1293       C  0.97612981  0.36874995  0.86247665     0.18200
C1294       C  0.95330562  0.36733255  0.86280267    -0.19800
C1295       C  0.98838207  0.34975229  0.85942387    -0.21100
C1296       C  0.01098909  0.35043313  0.85986701    -0.19600
C1297       C  0.02190312  0.37012871  0.86336652     0.19600
C1298       C  0.01000478  0.38987067  0.86592690     0.01700
C1299       C  0.02201265  0.40931292  0.86913578    -0.14400
C1300       C  0.04479506  0.40899210  0.87032730    -0.12100
C1301       C  0.05632518  0.38935844  0.86841142     0.01200
C1302       C  0.04472138  0.37006271  0.86463014    -0.24300
H1303       H  0.94108043  0.42081050  0.87097007     0.09200
H1304       H  0.98006656  0.42391752  0.87053030     0.12800
H1305       H  0.94556643  0.35159749  0.86061899     0.11500
H1306       H  0.98041491  0.33418377  0.85694989     0.12700
H1307       H  0.02000550  0.33537478  0.85773238     0.11700
H1308       H  0.01429048  0.42498750  0.87098582     0.08800
H1309       H  0.05338473  0.42415752  0.87309578     0.12100
H1310       H  0.05347245  0.35479776  0.86280856     0.14000
C1311       C  0.80204391  0.37394932  0.11857900    -0.01600
C1312       C  0.79210900  0.35761810  0.13101113    -0.09600
C1313       C  0.76942470  0.35596334  0.13197517    -0.18400
C1314       C  0.75594670  0.37038555  0.12001556     0.04000
C1315       C  0.76621117  0.38612639  0.10644497     0.18200
C1316       C  0.78902897  0.38816588  0.10632632    -0.19800
C1317       C  0.75365183  0.39957126  0.09291651    -0.21100
C1318       C  0.73106785  0.39765011  0.09247849    -0.19600
C1319       C  0.72043919  0.38295846  0.10630292     0.19600
C1320       C  0.73268864  0.36954580  0.12074968     0.01700
C1321       C  0.72110396  0.35629835  0.13564956    -0.14400
C1322       C  0.69832787  0.35608908  0.13582087    -0.12100
C1323       C  0.68645976  0.36852901  0.12080844     0.01200
C1324       C  0.69757095  0.38185710  0.10603290    -0.24300
H1325       H  0.80195350  0.34630633  0.14038390     0.09200
H1326       H  0.76291728  0.34296312  0.14183486     0.12800
H1327       H  0.79672703  0.40050598  0.09627985     0.11500
H1328       H  0.76137335  0.41143207  0.08235051     0.12700
H1329       H  0.72181658  0.40805448  0.08156718     0.11700
H1330       H  0.72918105  0.34637918  0.14772033     0.08800
H1331       H  0.68993226  0.34587410  0.14751921     0.12100
H1332       H  0.68833582  0.39187878  0.09473302     0.14000
C1333       C  0.93601701  0.38360098  0.12147875    -0.01600
C1334       C  0.94670811  0.40376727  0.12127835    -0.09600
C1335       C  0.96947102  0.40489509  0.12204513    -0.18400
C1336       C  0.98235798  0.38574981  0.12308035     0.04000
C1337       C  0.97137185  0.36537062  0.12376605     0.18200
C1338       C  0.94852586  0.36449167  0.12290468    -0.19800
C1339       C  0.98322268  0.34591422  0.12521279    -0.21100
C1340       C  0.00585714  0.34619103  0.12578388    -0.19600
C1341       C  0.01721995  0.36592312  0.12477657     0.19600
C1342       C  0.00568465  0.38601807  0.12340951     0.01700
C1343       C  0.01804344  0.40543366  0.12222726    -0.14400
C1344       C  0.04081474  0.40487948  0.12246279    -0.12100
C1345       C  0.05208934  0.38503934  0.12386176     0.01200
C1346       C  0.04011930  0.36561898  0.12502227    -0.24300
H1347       H  0.93745643  0.41879292  0.12038449     0.09200
H1348       H  0.97646198  0.42099300  0.12180225     0.12800
H1349       H  0.94047107  0.34877187  0.12332408     0.11500
H1350       H  0.97492018  0.33034017  0.12585041     0.12700
H1351       H  0.01454618  0.33082820  0.12686746     0.11700
H1352       H  0.01062656  0.42131350  0.12097335     0.08800
H1353       H  0.04962886  0.42013651  0.12145344     0.12100
H1354       H  0.04862881  0.35015086  0.12609980     0.14000
C1355       C  0.87399565  0.38103535  0.93558018    -0.01600
C1356       C  0.87425660  0.40097349  0.94673130    -0.09600
C1357       C  0.87358915  0.40169238  0.96946867    -0.18400
C1358       C  0.87257126  0.38234847  0.98198051     0.04000
C1359       C  0.87238563  0.36213590  0.97062374     0.18200
C1360       C  0.87313791  0.36165557  0.94770401    -0.19800
C1361       C  0.87137948  0.34249561  0.98220033    -0.21100
C1362       C  0.87061981  0.34244739  0.00485419    -0.19600
C1363       C  0.87082489  0.36203832  0.01653872     0.19600
C1364       C  0.87173884  0.38230108  0.00529798     0.01700
C1365       C  0.87177546  0.40159473  0.01792223    -0.14400
C1366       C  0.87105506  0.40076611  0.04066003    -0.12100
C1367       C  0.87030258  0.38076464  0.05168991     0.01200
C1368       C  0.87014993  0.36145009  0.03945160    -0.24300
H1369       H  0.87493421  0.41621542  0.93784055     0.09200
H1370       H  0.87385282  0.41767412  0.97672171     0.12800
H1371       H  0.87287405  0.34611332  0.93929985     0.11500
H1372       H  0.87119440  0.32703023  0.97366567     0.12700
H1373       H  0.86988123  0.32694501  0.01330542     0.11700
H1374       H  0.87236401  0.41761445  0.01075735     0.08800
H1375       H  0.87117655  0.41596045  0.04964559     0.12100
H1376       H  0.86949906  0.34585881  0.04775834     0.14000
C1377       C  0.38227870  0.80306901  0.12918424    -0.01600
C1378       C  0.39641269  0.79117858  0.14259049    -0.09600
C1379       C  0.39551150  0.76839582  0.14306649    -0.18400
C1380       C  0.38069132  0.75682893  0.12966010     0.04000
C1381       C  0.36724635  0.76907099  0.11524833     0.18200
C1382       C  0.36779515  0.79192823  0.11552112    -0.19800
C1383       C  0.35341869  0.75844858  0.10054193    -0.21100
C1384       C  0.35272994  0.73582756  0.09970543    -0.19600
C1385       C  0.36520476  0.72328972  0.11414072     0.19600
C1386       C  0.37892902  0.73359568  0.12974839     0.01700
C1387       C  0.38996708  0.72019156  0.14496256    -0.14400
C1388       C  0.38791273  0.69751383  0.14425739    -0.12100
C1389       C  0.37527035  0.68749156  0.12812805     0.01200
C1390       C  0.36392917  0.70045376  0.11313985    -0.24300
H1391       H  0.40785679  0.79955809  0.15311175     0.09200
H1392       H  0.40683587  0.76027413  0.15380126     0.12800
H1393       H  0.35715374  0.80112874  0.10476876     0.11500
H1394       H  0.34328004  0.76770703  0.08938777     0.12700
H1395       H  0.34211024  0.72808307  0.08789555     0.11700
H1396       H  0.40001350  0.72677606  0.15778914     0.08800
H1397       H  0.39671303  0.68771813  0.15605617     0.12100
H1398       H  0.35381458  0.69271745  0.10087057     0.14000
C1399       C  0.38111304  0.80682435  0.87770454    -0.01600
C1400       C  0.36574599  0.79611439  0.89068833    -0.09600
C1401       C  0.36468079  0.77340965  0.89112180    -0.18400
C1402       C  0.37876558  0.76060612  0.87810728     0.04000
C1403       C  0.39399319  0.77161693  0.86452560     0.18200
C1404       C  0.39535042  0.79450516  0.86479885    -0.19800
C1405       C  0.40755389  0.75973405  0.85054292    -0.21100
C1406       C  0.40620948  0.73711968  0.84959391    -0.19600
C1407       C  0.39172948  0.72577265  0.86307272     0.19600
C1408       C  0.37809186  0.73732354  0.87785730     0.01700
C1409       C  0.36461122  0.72503250  0.89195434    -0.14400
C1410       C  0.36468189  0.70230055  0.89133490    -0.12100
C1411       C  0.37772035  0.69108760  0.87638050     0.01200
C1412       C  0.39104759  0.70287840  0.86211688    -0.24300
H1413       H  0.35459749  0.80538241  0.90078251     0.09200
H1414       H  0.35236953  0.76642041  0.90148682     0.12800
H1415       H  0.40707685  0.80278377  0.85449485     0.11500
H1416       H  0.41910238  0.76801133  0.84005581     0.12700
H1417       H  0.41677150  0.72841972  0.83841903     0.11700
H1418       H  0.35418652  0.73244902  0.90397395     0.08800
H1419       H  0.35433336  0.69339967  0.90253565     0.12100
H1420       H  0.40143847  0.69416946  0.85076806     0.14000
C1421       C  0.38600556  0.87104672  0.94572514    -0.01600
C1422       C  0.40593812  0.87192817  0.95688350    -0.09600
C1423       C  0.40660801  0.87118862  0.97967191    -0.18400
C1424       C  0.38722443  0.86946527  0.99208250     0.04000
C1425       C  0.36711781  0.86820072  0.98059625     0.18200
C1426       C  0.36669981  0.86906018  0.95776333    -0.19800
C1427       C  0.34744261  0.86617957  0.99192515    -0.21100
C1428       C  0.34720162  0.86564359  0.01453318    -0.19600
C1429       C  0.36661958  0.86722569  0.02639064     0.19600
C1430       C  0.38695953  0.86906802  0.01540422     0.01700
C1431       C  0.40603828  0.87064078  0.02828919    -0.14400
C1432       C  0.40488297  0.87057813  0.05104446    -0.12100
C1433       C  0.38475526  0.86896441  0.06174733     0.01200
C1434       C  0.36571790  0.86716073  0.04924655    -0.24300
H1435       H  0.42111438  0.87336587  0.94798474     0.09200
H1436       H  0.42252253  0.87203379  0.98706621     0.12800
H1437       H  0.35117153  0.86817057  0.94933923     0.11500
H1438       H  0.33208552  0.86510000  0.98322774     0.12700
H1439       H  0.33166602  0.86416044  0.02281616     0.11700
H1440       H  0.42207639  0.87209757  0.02129897     0.08800
H1441       H  0.41987158  0.87198496  0.06029102     0.12100
H1442       H  0.35005237  0.86579897  0.05731626     0.14000
C1443       C  0.37614845  0.19110515  0.88738268    -0.01600
C1444       C  0.38912145  0.20243240  0.90230796    -0.09600
C1445       C  0.38864135  0.22517256  0.90309921    -0.18400
C1446       C  0.37550865  0.23728778  0.88845917     0.04000
C1447       C  0.36295635  0.22558703  0.87285953     0.18200
C1448       C  0.36296607  0.20271360  0.87283535    -0.19800
C1449       C  0.35077515  0.23676668  0.85712054    -0.21100
C1450       C  0.35091160  0.25940242  0.85638259    -0.19600
C1451       C  0.36262955  0.27141217  0.87182964     0.19600
C1452       C  0.37469317  0.26055288  0.88842600     0.01700
C1453       C  0.38518737  0.27347261  0.90438320    -0.14400
C1454       C  0.38405916  0.29618422  0.90361038    -0.12100
C1455       C  0.37286349  0.30673600  0.88675379     0.01200
C1456       C  0.36221595  0.29427646  0.87087866    -0.24300
H1457       H  0.39954848  0.19362323  0.91354843     0.09200
H1458       H  0.39911826  0.23278327  0.91496410     0.12800
H1459       H  0.35327202  0.19389037  0.86096349     0.11500
H1460       H  0.34134095  0.22793062  0.84507642     0.12700
H1461       H  0.34156963  0.26758344  0.84378482     0.11700
H1462       H  0.39408522  0.26652401  0.91785918     0.08800
H1463       H  0.39233489  0.30557237  0.91607582     0.12100
H1464       H  0.35322782  0.30242046  0.85798914     0.14000
C1465       C  0.38178853  0.05717912  0.88097380    -0.01600
C1466       C  0.40181454  0.04644007  0.88349153    -0.09600
C1467       C  0.40300360  0.02370131  0.88347829    -0.18400
C1468       C  0.38406492  0.01082079  0.88085477     0.04000
C1469       C  0.36382417  0.02179881  0.87793107     0.18200
C1470       C  0.36286205  0.04468990  0.87808038    -0.19800
C1471       C  0.34461245  0.00988354  0.87493008    -0.21100
C1472       C  0.34500991  0.98723803  0.87484055    -0.19600
C1473       C  0.36460989  0.97592174  0.87786157     0.19600
C1474       C  0.38444489  0.98749883  0.88096890     0.01700
C1475       C  0.40373568  0.97518711  0.88408927    -0.14400
C1476       C  0.40333696  0.95241399  0.88382721    -0.12100
C1477       C  0.38376512  0.94110541  0.88059556     0.01200
C1478       C  0.36444560  0.95302771  0.87773943    -0.24300
H1479       H  0.41671125  0.05565199  0.88571291     0.09200
H1480       H  0.41899366  0.01673465  0.88556526     0.12800
H1481       H  0.34727603  0.05278428  0.87597354     0.11500
H1482       H  0.32914495  0.01814208  0.87262556     0.12700
H1483       H  0.32984411  0.97850489  0.87243968     0.11700
H1484       H  0.41939497  0.98262957  0.88678598     0.08800
H1485       H  0.41848334  0.94362530  0.88623395     0.12100
H1486       H  0.34918855  0.94447844  0.87521201     0.14000
C1487       C  0.37166736  0.18736169  0.13443685    -0.01600
C1488       C  0.38359161  0.19932451  0.14971769    -0.09600
C1489       C  0.38281490  0.22209394  0.14973941    -0.18400
C1490       C  0.37046428  0.23360723  0.13396179     0.04000
C1491       C  0.35909265  0.22126196  0.11795972     0.18200
C1492       C  0.35937211  0.19836970  0.11866162    -0.19800
C1493       C  0.34775579  0.23182390  0.10118480    -0.21100
C1494       C  0.34760341  0.25444544  0.09980704    -0.19600
C1495       C  0.35819670  0.26708945  0.11555986     0.19600
C1496       C  0.36933234  0.25687864  0.13318625     0.01700
C1497       C  0.37867106  0.27043082  0.14933043    -0.14400
C1498       C  0.37751967  0.29311551  0.14766810    -0.12100
C1499       C  0.36738686  0.30305572  0.12975850     0.01200
C1500       C  0.35768473  0.28993450  0.11379824    -0.24300
H1501       H  0.39331489  0.19098825  0.16190788     0.09200
H1502       H  0.39241454  0.23021656  0.16200703     0.12800
H1503       H  0.35049048  0.18905092  0.10654067     0.11500
H1504       H  0.33921275  0.22250843  0.08884090     0.12700
H1505       H  0.33895935  0.26211736  0.08641831     0.11700
H1506       H  0.38674815  0.26399996  0.16356022     0.08800
H1507       H  0.38503206  0.30294833  0.16026524     0.12100
H1508       H  0.34948482  0.29754564  0.10008429     0.14000
C1509       C  0.37993360  0.93737296  0.12728922    -0.01600
C1510       C  0.39945870  0.94915004  0.12651198    -0.09600
C1511       C  0.39938228  0.97187971  0.12652746    -0.18400
C1512       C  0.37961632  0.98375235  0.12743457     0.04000
C1513       C  0.35978346  0.97177883  0.12773676     0.18200
C1514       C  0.36010354  0.94884538  0.12762445    -0.19800
C1515       C  0.33975995  0.98275937  0.12841698    -0.21100
C1516       C  0.33900023  0.00541587  0.12921434    -0.19600
C1517       C  0.35824564  0.01766848  0.12939083     0.19600
C1518       C  0.37883692  0.00702450  0.12833039     0.01700
C1519       C  0.39777141  0.02014302  0.12851891    -0.14400
C1520       C  0.39632665  0.04276924  0.12996556    -0.12100
C1521       C  0.37604980  0.05322802  0.13122915     0.01200
C1522       C  0.35702818  0.04053502  0.13079872    -0.24300
H1523       H  0.41500989  0.94076462  0.12602262     0.09200
H1524       H  0.41510967  0.97960615  0.12597269     0.12800
H1525       H  0.34485660  0.93993844  0.12807060     0.11500
H1526       H  0.32456822  0.97375422  0.12853083     0.12700
H1527       H  0.32324383  0.01340055  0.12990823     0.11700
H1528       H  0.41398723  0.01348172  0.12769738     0.08800
H1529       H  0.41130330  0.05211864  0.13012814     0.12100
H1530       H  0.34122828  0.04842680  0.13163301     0.14000
C1531       C  0.37332882  0.12118430  0.06684578    -0.01600
C1532       C  0.35413171  0.11643063  0.05541018    -0.09600
C1533       C  0.35379849  0.11632985  0.03266941    -0.18400
C1534       C  0.37277914  0.12111736  0.02050864     0.04000
C1535       C  0.39222566  0.12593800  0.03220422     0.18200
C1536       C  0.39234004  0.12587455  0.05509329    -0.19800
C1537       C  0.41148053  0.13079715  0.02100845    -0.21100
C1538       C  0.41192573  0.13083950  0.99837545    -0.19600
C1539       C  0.39311722  0.12606813  0.98637572     0.19600
C1540       C  0.37321022  0.12125926  0.99721820     0.01700
C1541       C  0.35464233  0.11685206  0.98424001    -0.14400
C1542       C  0.35586441  0.11714607  0.96152165    -0.12100
C1543       C  0.37557781  0.12168360  0.95095750     0.01200
C1544       C  0.39413637  0.12612897  0.96352739    -0.24300
H1545       H  0.33923470  0.11261357  0.06407588     0.09200
H1546       H  0.33843203  0.11239698  0.02514357     0.12800
H1547       H  0.40729141  0.12959911  0.06376599     0.11500
H1548       H  0.42633662  0.13454317  0.02982568     0.12700
H1549       H  0.42711681  0.13461806  0.99019133     0.11700
H1550       H  0.33891345  0.11318256  0.99109735     0.08800
H1551       H  0.34126782  0.11369973  0.95218688     0.12100
H1552       H  0.40943306  0.12988161  0.95551560     0.14000
C1553       C  0.87649521  0.06533595  0.63057209    -0.01600
C1554       C  0.87466084  0.05397325  0.65029278    -0.09600
C1555       C  0.87438901  0.03120002  0.65066071    -0.18400
C1556       C  0.87598839  0.01894729  0.63117358     0.04000
C1557       C  0.87799887  0.03057300  0.61122791     0.18200
C1558       C  0.87820324  0.05345618  0.61110837    -0.19800
C1559       C  0.87972536  0.01931870  0.59146222    -0.21100
C1560       C  0.87929433  0.99667851  0.59100703    -0.19600
C1561       C  0.87712110  0.98471539  0.61030810     0.19600
C1562       C  0.87555400  0.99564312  0.63070262     0.01700
C1563       C  0.87351048  0.98273889  0.64969218    -0.14400
C1564       C  0.87284813  0.96003963  0.64844897    -0.12100
C1565       C  0.87417384  0.94934290  0.62832017     0.01200
C1566       C  0.87640283  0.96183689  0.60929924    -0.24300
H1567       H  0.87331996  0.06271529  0.66557085     0.09200
H1568       H  0.87285436  0.02371157  0.66646921     0.12800
H1569       H  0.87970725  0.06203242  0.59572234     0.11500
H1570       H  0.88133270  0.02810001  0.57621176     0.12700
H1571       H  0.88057435  0.98846614  0.57541843     0.11700
H1572       H  0.87231674  0.98965742  0.66578461     0.08800
H1573       H  0.87116169  0.95082398  0.66341739     0.12100
H1574       H  0.87755180  0.95376469  0.59362274     0.14000
C1575       C  0.05983199  0.13371204  0.62999074    -0.01600
C1576       C  0.04899501  0.13393119  0.60987733    -0.09600
C1577       C  0.02628626  0.13450914  0.60885510    -0.18400
C1578       C  0.01354845  0.13477651  0.62805867     0.04000
C1579       C  0.02463403  0.13513497  0.64842738     0.18200
C1580       C  0.04751064  0.13463687  0.64920517    -0.19800
C1581       C  0.01283311  0.13569718  0.66793048    -0.21100
C1582       C  0.99017974  0.13553983  0.66769084    -0.19600
C1583       C  0.97877186  0.13474142  0.64794316     0.19600
C1584       C  0.99026524  0.13445635  0.62781569     0.01700
C1585       C  0.97793093  0.13355185  0.60835493    -0.14400
C1586       C  0.95522487  0.13284802  0.60888550    -0.12100
C1587       C  0.94397153  0.13306534  0.62874335     0.01200
C1588       C  0.95588660  0.13408062  0.64822769    -0.24300
H1589       H  0.05809692  0.13347006  0.59476495     0.09200
H1590       H  0.01924520  0.13457913  0.59275435     0.12800
H1591       H  0.05571540  0.13465313  0.66487633     0.11500
H1592       H  0.02119029  0.13608576  0.68350557     0.12700
H1593       H  0.98151872  0.13583994  0.68308276     0.11700
H1594       H  0.98529507  0.13324118  0.59241492     0.08800
H1595       H  0.94644579  0.13213538  0.59357260     0.12100
H1596       H  0.94735569  0.13430952  0.66370246     0.14000
C1597       C  0.05436588  0.87773966  0.62788194    -0.01600
C1598       C  0.04359560  0.87528600  0.60788381    -0.09600
C1599       C  0.02089465  0.87490347  0.60678341    -0.18400
C1600       C  0.00806757  0.87712461  0.62578771     0.04000
C1601       C  0.01905329  0.87968947  0.64605796     0.18200
C1602       C  0.04195489  0.87982103  0.64694550    -0.19800
C1603       C  0.00713045  0.88232392  0.66531533    -0.21100
C1604       C  0.98447572  0.88270801  0.66487662    -0.19600
C1605       C  0.97318129  0.88027600  0.64519582     0.19600
C1606       C  0.98477551  0.87720882  0.62537594     0.01700
C1607       C  0.97252735  0.87450059  0.60600853    -0.14400
C1608       C  0.94980095  0.87541328  0.60627368    -0.12100
C1609       C  0.93848046  0.87887803  0.62577524     0.01200
C1610       C  0.95029999  0.88105681  0.64522560    -0.24300
H1611       H  0.05275873  0.87359082  0.59288445     0.09200
H1612       H  0.01395088  0.87304754  0.59079221     0.12800
H1613       H  0.05010731  0.88181176  0.66249974     0.11500
H1614       H  0.01538787  0.88430049  0.68081438     0.12700
H1615       H  0.97572486  0.88498989  0.68004681     0.11700
H1616       H  0.97995137  0.87168059  0.59039158     0.08800
H1617       H  0.94106013  0.87336233  0.59105440     0.12100
H1618       H  0.94170225  0.88363126  0.66043787     0.14000
C1619       C  0.12113570  0.94581083  0.63235030    -0.01600
C1620       C  0.12170533  0.95658815  0.65248891    -0.09600
C1621       C  0.12173072  0.97935283  0.65358815    -0.18400
C1622       C  0.12118182  0.99222088  0.63443901     0.04000
C1623       C  0.12043300  0.98119968  0.61405901     0.18200
C1624       C  0.12043472  0.95830483  0.61320461    -0.19800
C1625       C  0.11976829  0.99307324  0.59458661    -0.21100
C1626       C  0.12004190  0.01571855  0.59484839    -0.19600
C1627       C  0.12101053  0.02709568  0.61458782     0.19600
C1628       C  0.12147763  0.01556252  0.63470771     0.01700
C1629       C  0.12236757  0.02793923  0.65414694    -0.14400
C1630       C  0.12300847  0.05071215  0.65357208    -0.12100
C1631       C  0.12281005  0.06199039  0.63368681     0.01200
C1632       C  0.12167526  0.04999860  0.61426097    -0.24300
H1633       H  0.12220780  0.94738903  0.66755699     0.09200
H1634       H  0.12224063  0.98636087  0.66967597     0.12800
H1635       H  0.11992578  0.95020637  0.59750694     0.11500
H1636       H  0.11912697  0.98477640  0.57900466     0.12700
H1637       H  0.11961257  0.02440501  0.57946157     0.11700
H1638       H  0.12270307  0.02052993  0.67006798     0.08800
H1639       H  0.12385766  0.05951803  0.66884854     0.12100
H1640       H  0.12140964  0.05849669  0.59875935     0.14000
C1641       C  0.62719054  0.86704113  0.19593111    -0.01600
C1642       C  0.64274399  0.85523235  0.20780433    -0.09600
C1643       C  0.64280524  0.85562468  0.23060344    -0.18400
C1644       C  0.62757783  0.86843666  0.24228363     0.04000
C1645       C  0.61233345  0.88098841  0.23005898     0.18200
C1646       C  0.61190565  0.87973205  0.20716979    -0.19800
C1647       C  0.59788040  0.89506085  0.24071999    -0.21100
C1648       C  0.59843079  0.89722565  0.26327335    -0.19600
C1649       C  0.61285104  0.88473269  0.27582488     0.19600
C1650       C  0.62721291  0.86966785  0.26558440     0.01700
C1651       C  0.64031641  0.85632911  0.27915439    -0.14400
C1652       C  0.63942991  0.85821038  0.30186779    -0.12100
C1653       C  0.62594790  0.87376192  0.31175405     0.01200
C1654       C  0.61277483  0.88703213  0.29862765    -0.24300
H1655       H  0.65481857  0.84546161  0.19939014     0.09200
H1656       H  0.65531402  0.84620195  0.23861668     0.12800
H1657       H  0.60012332  0.88925932  0.19801606     0.11500
H1658       H  0.58632818  0.90478870  0.23150746     0.12700
H1659       H  0.58728296  0.90856623  0.27098508     0.11700
H1660       H  0.65103490  0.84398000  0.27270788     0.08800
H1661       H  0.64955840  0.84762662  0.31176547     0.12100
H1662       H  0.60194135  0.89875280  0.30625090     0.14000
C1663       C  0.62343327  0.88208584  0.69628984    -0.01600
C1664       C  0.63454659  0.89832941  0.70780947    -0.09600
C1665       C  0.63625532  0.89734767  0.73050181    -0.18400
C1666       C  0.62643440  0.88020102  0.74238869     0.04000
C1667       C  0.61419894  0.86443866  0.73059219     0.18200
C1668       C  0.61325097  0.86523346  0.70776493    -0.19800
C1669       C  0.60288888  0.84802020  0.74163396    -0.21100
C1670       C  0.60339343  0.84691219  0.76423740    -0.19600
C1671       C  0.61593592  0.86165402  0.77627818     0.19600
C1672       C  0.62808655  0.87821114  0.76552637     0.01700
C1673       C  0.64170550  0.89169009  0.77837876    -0.14400
C1674       C  0.64288700  0.88899286  0.80096807    -0.12100
C1675       C  0.63015121  0.87326196  0.81141787     0.01200
C1676       C  0.61662922  0.85973403  0.79904965    -0.24300
H1677       H  0.64237293  0.91159438  0.69918341     0.09200
H1678       H  0.64506743  0.91038808  0.73830233     0.12800
H1679       H  0.60425564  0.85287131  0.69888244     0.11500
H1680       H  0.59337097  0.83609079  0.73273079     0.12700
H1681       H  0.59423379  0.83416905  0.77234080     0.11700
H1682       H  0.65196584  0.90411992  0.77140277     0.08800
H1683       H  0.65346686  0.89954247  0.81038158     0.12100
H1684       H  0.60701535  0.84732392  0.80717902     0.14000
C1685       C  0.68909090  0.88654224  0.62990840    -0.01600
C1686       C  0.69995043  0.90387206  0.61984631    -0.09600
C1687       C  0.72268832  0.90440648  0.61913405    -0.18400
C1688       C  0.73527476  0.88768391  0.62886105     0.04000
C1689       C  0.72412490  0.87096254  0.64037916     0.18200
C1690       C  0.70125484  0.87027064  0.64037915    -0.19800
C1691       C  0.73586424  0.85504166  0.65179586    -0.21100
C1692       C  0.75852945  0.85530553  0.65192590    -0.19600
C1693       C  0.76996180  0.87091895  0.63986167     0.19600
C1694       C  0.75849582  0.88702193  0.62770384     0.01700
C1695       C  0.77074304  0.90131674  0.61438692    -0.14400
C1696       C  0.79344523  0.89990378  0.61354539    -0.12100
C1697       C  0.80459178  0.88469579  0.62635408     0.01200
C1698       C  0.79283122  0.87030932  0.63955493    -0.24300
H1699       H  0.69080756  0.91683049  0.61203171     0.09200
H1700       H  0.72995757  0.91824723  0.61112131     0.12800
H1701       H  0.69287491  0.85715725  0.64875694     0.11500
H1702       H  0.72745872  0.84240977  0.66083483     0.12700
H1703       H  0.76717437  0.84289930  0.66110138     0.11700
H1704       H  0.76321153  0.91336236  0.60401582     0.08800
H1705       H  0.80238056  0.91102132  0.60313917     0.12100
H1706       H  0.80152436  0.85823373  0.64914926     0.14000
C1707       C  0.62164758  0.88424388  0.56202173    -0.01600
C1708       C  0.62061116  0.90413396  0.55078828    -0.09600
C1709       C  0.62009249  0.90472857  0.52802014    -0.18400
C1710       C  0.62059861  0.88530501  0.51561776     0.04000
C1711       C  0.62187811  0.86518317  0.52710421     0.18200
C1712       C  0.62233104  0.86483404  0.54999784    -0.19800
C1713       C  0.62275917  0.84546732  0.51569681    -0.21100
C1714       C  0.62253856  0.84524762  0.49306597    -0.19600
C1715       C  0.62125495  0.86472822  0.48125634     0.19600
C1716       C  0.62006790  0.88506505  0.49228955     0.01700
C1717       C  0.61843419  0.90418984  0.47944168    -0.14400
C1718       C  0.61850950  0.90312534  0.45665505    -0.12100
C1719       C  0.62013945  0.88304172  0.44590184     0.01200
C1720       C  0.62128782  0.86391539  0.45839777    -0.24300
H1721       H  0.62018322  0.91940756  0.55962895     0.09200
H1722       H  0.61939369  0.92064449  0.52063336     0.12800
H1723       H  0.62320394  0.84933642  0.55846181     0.11500
H1724       H  0.62374756  0.83008310  0.52434526     0.12700
H1725       H  0.62339550  0.82969533  0.48472892     0.11700
H1726       H  0.61710482  0.92021210  0.48648736     0.08800
H1727       H  0.61739558  0.91814601  0.44743043     0.12100
H1728       H  0.62242930  0.84823754  0.45032305     0.14000
C1729       C  0.30444745  0.88150323  0.63050899    -0.01600
C1730       C  0.29328132  0.89859489  0.62028416    -0.09600
C1731       C  0.27050246  0.89906185  0.61990222    -0.18400
C1732       C  0.25812562  0.88251398  0.63015016     0.04000
C1733       C  0.26961857  0.86569221  0.64126765     0.18200
C1734       C  0.29251818  0.86512866  0.64101020    -0.19800
C1735       C  0.25820457  0.84954208  0.65262011    -0.21100
C1736       C  0.23554415  0.84968412  0.65318181    -0.19600
C1737       C  0.22371513  0.86562117  0.64189352     0.19600
C1738       C  0.23481267  0.88207795  0.62988902     0.01700
C1739       C  0.22206813  0.89707903  0.61780932    -0.14400
C1740       C  0.19933401  0.89576552  0.61772043    -0.12100
C1741       C  0.18858052  0.87992368  0.63006101     0.01200
C1742       C  0.20080074  0.86501078  0.64227475    -0.24300
H1743       H  0.30221839  0.91147235  0.61216387     0.09200
H1744       H  0.26307794  0.91270610  0.61167331     0.12800
H1745       H  0.30111490  0.85205707  0.64928843     0.11500
H1746       H  0.26687592  0.83677560  0.66125995     0.12700
H1747       H  0.22720014  0.83702711  0.66224277     0.11700
H1748       H  0.22917337  0.90972145  0.60791470     0.08800
H1749       H  0.19005594  0.90740358  0.60817318     0.12100
H1750       H  0.19243329  0.85253509  0.65158887     0.14000
C1751       C  0.37349163  0.87969387  0.69614106    -0.01600
C1752       C  0.38664196  0.89491137  0.70685255    -0.09600
C1753       C  0.38803087  0.89513072  0.72955915    -0.18400
C1754       C  0.37584913  0.88030622  0.74233560     0.04000
C1755       C  0.36168646  0.86560195  0.73135206     0.18200
C1756       C  0.36103229  0.86506869  0.70844944    -0.19800
C1757       C  0.34818318  0.85162902  0.74329368    -0.21100
C1758       C  0.34849616  0.85186775  0.76596703    -0.19600
C1759       C  0.36290364  0.86549805  0.77724527     0.19600
C1760       C  0.37709111  0.87963931  0.76558252     0.01700
C1761       C  0.39229388  0.89206586  0.77767912    -0.14400
C1762       C  0.39330766  0.89050619  0.80035458    -0.12100
C1763       C  0.37890393  0.87702431  0.81173843     0.01200
C1764       C  0.36354714  0.86474932  0.80014362    -0.24300
H1765       H  0.39622297  0.90648233  0.69757664     0.09200
H1766       H  0.39849250  0.90732945  0.73662465     0.12800
H1767       H  0.35046308  0.85357521  0.70016961     0.11500
H1768       H  0.33716726  0.84056106  0.73503990     0.12700
H1769       H  0.33771625  0.84097320  0.77473912     0.11700
H1770       H  0.40400871  0.90269305  0.77007394     0.08800
H1771       H  0.40529870  0.90009380  0.80908841     0.12100
H1772       H  0.35257906  0.85404806  0.80894331     0.14000
C1773       C  0.43889307  0.87684606  0.62815061    -0.01600
C1774       C  0.45023275  0.85722777  0.63124593    -0.09600
C1775       C  0.47304661  0.85681712  0.63167308    -0.18400
C1776       C  0.48533892  0.87614397  0.62891312     0.04000
C1777       C  0.47370819  0.89593710  0.62555816     0.18200
C1778       C  0.45082682  0.89610734  0.62526560    -0.19800
C1779       C  0.48494229  0.91553590  0.62253502    -0.21100
C1780       C  0.50756564  0.91599540  0.62283504    -0.19600
C1781       C  0.51954427  0.89687665  0.62621626     0.19600
C1782       C  0.50867633  0.87663272  0.62931137     0.01700
C1783       C  0.52168969  0.85785511  0.63265441    -0.14400
C1784       C  0.54445233  0.85916650  0.63272383    -0.12100
C1785       C  0.55502539  0.87917892  0.62961869     0.01200
C1786       C  0.54240201  0.89796015  0.62646157    -0.24300
H1787       H  0.44144099  0.84210106  0.63354587     0.09200
H1788       H  0.48055965  0.84113099  0.63421077     0.12800
H1789       H  0.44228127  0.91139540  0.62276073     0.11500
H1790       H  0.47615327  0.93065943  0.61991852     0.12700
H1791       H  0.51576185  0.93145462  0.62042630     0.11700
H1792       H  0.51479089  0.84192035  0.63524834     0.08800
H1793       H  0.55381137  0.84440459  0.63532313     0.12100
H1794       H  0.55038679  0.91352827  0.62398157     0.14000
C1795       C  0.37929526  0.87126065  0.19592296    -0.01600
C1796       C  0.39322998  0.88526187  0.20728577    -0.09600
C1797       C  0.39320945  0.88576283  0.23002143    -0.18400
C1798       C  0.37949498  0.87178332  0.24218049     0.04000
C1799       C  0.36607805  0.85690186  0.23052020     0.18200
C1800       C  0.36567882  0.85715765  0.20758937    -0.19800
C1801       C  0.35336595  0.84170009  0.24181969    -0.21100
C1802       C  0.35361546  0.84099911  0.26449646    -0.19600
C1803       C  0.36594751  0.85601263  0.27645871     0.19600
C1804       C  0.37877295  0.87188736  0.26545663     0.01700
C1805       C  0.38988150  0.88752527  0.27822248    -0.14400
C1806       C  0.38829215  0.88739037  0.30089182    -0.12100
C1807       C  0.37605754  0.87145214  0.31165644     0.01200
C1808       C  0.36515039  0.85559140  0.29938441    -0.24300
H1809       H  0.40407409  0.89607209  0.19849456     0.09200
H1810       H  0.40445291  0.89692391  0.23758036     0.12800
H1811       H  0.35526393  0.84591583  0.19878119     0.11500
H1812       H  0.34331224  0.83012636  0.23304899     0.12700
H1813       H  0.34372665  0.82891437  0.27274532     0.11700
H1814       H  0.39943263  0.90045410  0.27117659     0.08800
H1815       H  0.39681918  0.89981187  0.31010458     0.12100
H1816       H  0.35539644  0.84340798  0.30766763     0.14000
C1817       C  0.55587773  0.87599064  0.37654085    -0.01600
C1818       C  0.54521393  0.85584545  0.37747415    -0.09600
C1819       C  0.52249339  0.85469627  0.37794769    -0.18400
C1820       C  0.50955181  0.87380336  0.37752050     0.04000
C1821       C  0.52043031  0.89421045  0.37612641     0.18200
C1822       C  0.54332103  0.89512237  0.37569244    -0.19800
C1823       C  0.50841107  0.91361009  0.37526399    -0.21100
C1824       C  0.48574970  0.91320949  0.37579058    -0.19600
C1825       C  0.47453627  0.89341321  0.37739489     0.19600
C1826       C  0.48625696  0.87341401  0.37839327     0.01700
C1827       C  0.47412327  0.85392151  0.38034228    -0.14400
C1828       C  0.45137985  0.85426758  0.38095493    -0.12100
C1829       C  0.43986854  0.87396899  0.37970181     0.01200
C1830       C  0.45161712  0.89351374  0.37800583    -0.24300
H1831       H  0.55447561  0.84080419  0.37801422     0.09200
H1832       H  0.51559356  0.83857174  0.37865097     0.12800
H1833       H  0.55135803  0.91083262  0.37485431     0.11500
H1834       H  0.51659549  0.92921696  0.37415030     0.12700
H1835       H  0.47693034  0.92851561  0.37503371     0.11700
H1836       H  0.48168379  0.83810379  0.38149115     0.08800
H1837       H  0.44276819  0.83892530  0.38236623     0.12100
H1838       H  0.44292436  0.90888587  0.37704065     0.14000
C1839       C  0.37013758  0.87691021  0.44580800    -0.01600
C1840       C  0.37249921  0.89695649  0.45648400    -0.09600
C1841       C  0.37190811  0.89824108  0.47920028    -0.18400
C1842       C  0.36885130  0.87938282  0.49212601     0.04000
C1843       C  0.36619532  0.85911064  0.48121014     0.18200
C1844       C  0.36689986  0.85805584  0.45833159    -0.19800
C1845       C  0.36300790  0.83995392  0.49318659    -0.21100
C1846       C  0.36282750  0.84038388  0.51584177    -0.19600
C1847       C  0.36580359  0.85998616  0.52711086     0.19600
C1848       C  0.36859721  0.87983244  0.51543942     0.01700
C1849       C  0.37123762  0.89919841  0.52764812    -0.14400
C1850       C  0.37158684  0.89877579  0.55039108    -0.12100
C1851       C  0.36932492  0.87912513  0.56183305     0.01200
C1852       C  0.36621501  0.85980163  0.55003218    -0.24300
H1853       H  0.37501917  0.91178944  0.44724109     0.09200
H1854       H  0.37402319  0.91423759  0.48611003     0.12800
H1855       H  0.36491156  0.84245670  0.45026620     0.11500
H1856       H  0.36083556  0.82446934  0.48496860     0.12700
H1857       H  0.36053182  0.82522115  0.52462100     0.11700
H1858       H  0.37320118  0.91495147  0.52014881     0.08800
H1859       H  0.37384910  0.91399169  0.55904869     0.12100
H1860       H  0.36421807  0.84451662  0.55868364     0.14000
C1861       C  0.87829176  0.38363476  0.68552539    -0.01600
C1862       C  0.89652023  0.37602308  0.69699442    -0.09600
C1863       C  0.89638558  0.37507832  0.71975214    -0.18400
C1864       C  0.87800212  0.38207425  0.73181025     0.04000
C1865       C  0.86000981  0.39085072  0.72009707     0.18200
C1866       C  0.86012998  0.39113513  0.69721139    -0.19800
C1867       C  0.84205021  0.39940090  0.73129043    -0.21100
C1868       C  0.84165629  0.39962957  0.75395431    -0.19600
C1869       C  0.85877965  0.39045570  0.76596529     0.19600
C1870       C  0.87691912  0.38095790  0.75504881     0.01700
C1871       C  0.89292425  0.37034037  0.76785830    -0.14400
C1872       C  0.89120264  0.36966398  0.79054621    -0.12100
C1873       C  0.87389404  0.38000372  0.80118252     0.01200
C1874       C  0.85776010  0.39045436  0.78886317    -0.24300
H1875       H  0.91082645  0.37036656  0.68832292     0.09200
H1876       H  0.91102962  0.36911863  0.72746405     0.12800
H1877       H  0.84610593  0.39746269  0.68846567     0.11500
H1878       H  0.82834244  0.40624968  0.72245445     0.12700
H1879       H  0.82767630  0.40668487  0.76214313     0.11700
H1880       H  0.90668929  0.36200742  0.76079279     0.08800
H1881       H  0.90372905  0.36138824  0.79989482     0.12100
H1882       H  0.84414021  0.39812932  0.79712974     0.14000
C1883       C  0.87819844  0.31518347  0.62061094    -0.01600
C1884       C  0.89642868  0.30373121  0.61298451    -0.09600
C1885       C  0.89717251  0.28099206  0.61389284    -0.18400
C1886       C  0.87969475  0.26889060  0.62280605     0.04000
C1887       C  0.86149094  0.28064312  0.63108196     0.18200
C1888       C  0.86074770  0.30349915  0.62958579    -0.19800
C1889       C  0.84420584  0.26954147  0.64098465    -0.21100
C1890       C  0.84461627  0.24696640  0.64295794    -0.19600
C1891       C  0.86202978  0.23487097  0.63452867     0.19600
C1892       C  0.87967192  0.24560879  0.62397421     0.01700
C1893       C  0.89628650  0.23252425  0.61471275    -0.14400
C1894       C  0.89534479  0.20981023  0.61589378    -0.12100
C1895       C  0.87823390  0.19948601  0.62678194     0.01200
C1896       C  0.86173513  0.21202470  0.63626999    -0.24300
H1897       H  0.91017837  0.31239544  0.60609636     0.09200
H1898       H  0.91179248  0.27340534  0.60779721     0.12800
H1899       H  0.84671711  0.31224858  0.63585253     0.11500
H1900       H  0.83034264  0.27840498  0.64743703     0.12700
H1901       H  0.83105608  0.23888096  0.65087115     0.11700
H1902       H  0.90995218  0.23930535  0.60604377     0.08800
H1903       H  0.90817638  0.20022242  0.60842354     0.12100
H1904       H  0.84832012  0.20391439  0.64443445     0.14000
C1905       C  0.86835484  0.37809130  0.18606866    -0.01600
C1906       C  0.88034993  0.36212860  0.19713955    -0.09600
C1907       C  0.88120069  0.36189602  0.21986330    -0.18400
C1908       C  0.86965868  0.37750994  0.23229279     0.04000
C1909       C  0.85668701  0.39306023  0.22094908     0.18200
C1910       C  0.85654682  0.39352570  0.19805531    -0.19800
C1911       C  0.84380647  0.40792548  0.23251650    -0.21100
C1912       C  0.84342203  0.40761246  0.25517156    -0.19600
C1913       C  0.85655575  0.39299660  0.26680320     0.19600
C1914       C  0.87029669  0.37808559  0.25554292     0.01700
C1915       C  0.88440336  0.36474074  0.26804626    -0.14400
C1916       C  0.88457018  0.36597091  0.29075467    -0.12100
C1917       C  0.87035945  0.38004236  0.30166508     0.01200
C1918       C  0.85629259  0.39342093  0.28967793    -0.24300
H1919       H  0.88945475  0.34994461  0.18815363     0.09200
H1920       H  0.89070990  0.34906679  0.22721506     0.12800
H1921       H  0.84688670  0.40566008  0.18953038     0.11500
H1922       H  0.83374019  0.41969965  0.22397524     0.12700
H1923       H  0.83306246  0.41913923  0.26366042     0.11700
H1924       H  0.89584684  0.35357889  0.26075917     0.08800
H1925       H  0.89564006  0.35562509  0.29987700     0.12100
H1926       H  0.84557728  0.40461956  0.29820031     0.14000
C1927       C  0.87071408  0.38277760  0.43554226    -0.01600
C1928       C  0.85106048  0.38212942  0.44713563    -0.09600
C1929       C  0.85097681  0.38202437  0.46986499    -0.18400
C1930       C  0.87069446  0.38253523  0.48184190     0.04000
C1931       C  0.89058290  0.38343744  0.46998384     0.18200
C1932       C  0.89041329  0.38355688  0.44711524    -0.19800
C1933       C  0.91056032  0.38411782  0.48099882    -0.21100
C1934       C  0.91126622  0.38382544  0.50362875    -0.19600
C1935       C  0.89201210  0.38280208  0.51579888     0.19600
C1936       C  0.87142702  0.38213875  0.50510374     0.01700
C1937       C  0.85250061  0.38102596  0.51818507    -0.14400
C1938       C  0.85396860  0.38068171  0.54085113    -0.12100
C1939       C  0.87426662  0.38142690  0.55132871     0.01200
C1940       C  0.89324281  0.38244812  0.53865748    -0.24300
H1941       H  0.83559394  0.38161044  0.43861485     0.09200
H1942       H  0.83518162  0.38149272  0.47752268     0.12800
H1943       H  0.90573558  0.38414666  0.43831726     0.11500
H1944       H  0.92577061  0.38484325  0.47203908     0.12700
H1945       H  0.92700451  0.38435130  0.51167408     0.11700
H1946       H  0.83627844  0.38038996  0.51145563     0.08800
H1947       H  0.83902571  0.37988969  0.55021623     0.12100
H1948       H  0.90904972  0.38303994  0.54657968     0.14000
C1949       C  0.87293339  0.69979530  0.62248482    -0.01600
C1950       C  0.85713665  0.71023587  0.63517163    -0.09600
C1951       C  0.85598667  0.73290330  0.63597535    -0.18400
C1952       C  0.87042723  0.74592446  0.62363811     0.04000
C1953       C  0.88580997  0.73520727  0.60998268     0.18200
C1954       C  0.88730877  0.71232619  0.60995502    -0.19800
C1955       C  0.89934622  0.74739042  0.59624624    -0.21100
C1956       C  0.89785414  0.77002009  0.59570085    -0.19600
C1957       C  0.88342221  0.78104764  0.60952065     0.19600
C1958       C  0.86989920  0.76916914  0.62410967     0.01700
C1959       C  0.85680366  0.78108236  0.63889177    -0.14400
C1960       C  0.85693741  0.80380926  0.63893846    -0.12100
C1961       C  0.86962627  0.81535075  0.62396555     0.01200
C1962       C  0.88272307  0.80393534  0.60917672    -0.24300
H1963       H  0.84570970  0.70077194  0.64474498     0.09200
H1964       H  0.84327305  0.73972529  0.64599547     0.12800
H1965       H  0.89921351  0.70422884  0.59969244     0.11500
H1966       H  0.91095162  0.73934646  0.58562500     0.12700
H1967       H  0.90834684  0.77897958  0.58468138     0.11700
H1968       H  0.84676325  0.77333187  0.65103466     0.08800
H1969       H  0.84693121  0.81244245  0.65065947     0.12100
H1970       H  0.89297431  0.81292455  0.59792727     0.14000
C1971       C  0.87632500  0.63024722  0.68832968    -0.01600
C1972       C  0.89193584  0.61691560  0.69831672    -0.09600
C1973       C  0.89246317  0.61450622  0.72094948    -0.18400
C1974       C  0.87758098  0.62584301  0.73443675     0.04000
C1975       C  0.86235672  0.64010423  0.72422323     0.18200
C1976       C  0.86153331  0.64178732  0.70135151    -0.19800
C1977       C  0.84817151  0.65270346  0.73690815    -0.21100
C1978       C  0.84884862  0.65155869  0.75955406    -0.19600
C1979       C  0.86323294  0.63726121  0.77008171     0.19600
C1980       C  0.87746051  0.62380180  0.75766792     0.01700
C1981       C  0.89071164  0.60869004  0.76905941    -0.14400
C1982       C  0.89016447  0.60736668  0.79179542    -0.12100
C1983       C  0.87681432  0.62130873  0.80394182     0.01200
C1984       C  0.86337908  0.63623075  0.79299030    -0.24300
H1985       H  0.90355170  0.60792528  0.68850195     0.09200
H1986       H  0.90493993  0.60392880  0.72741261     0.12800
H1987       H  0.84964834  0.65241701  0.69366288     0.11500
H1988       H  0.83664824  0.66373470  0.72926443     0.12700
H1989       H  0.83784623  0.66174713  0.76890151     0.11700
H1990       H  0.90141542  0.59742998  0.76085354     0.08800
H1991       H  0.90057885  0.59564288  0.79996352     0.12100
H1992       H  0.85270936  0.64678965  0.80233585     0.14000
C1993       C  0.87573564  0.44966275  0.61641401    -0.01600
C1994       C  0.85572447  0.46061977  0.61510811    -0.09600
C1995       C  0.85478725  0.48333233  0.61504385    -0.18400
C1996       C  0.87397891  0.49601667  0.61639109     0.04000
C1997       C  0.89431172  0.48487212  0.61726918     0.18200
C1998       C  0.89501661  0.46194685  0.61724410    -0.19800
C1999       C  0.91381103  0.49666956  0.61837740    -0.21100
C2000       C  0.91356278  0.51933843  0.61889182    -0.19600
C2001       C  0.89380606  0.53078944  0.61839925     0.19600
C2002       C  0.87371531  0.51930838  0.61707973     0.01700
C2003       C  0.85422684  0.53165437  0.61676726    -0.14400
C2004       C  0.85467861  0.55434986  0.61784666    -0.12100
C2005       C  0.87448059  0.56562245  0.61919628     0.01200
C2006       C  0.89402088  0.55369473  0.61936886    -0.24300
H2007       H  0.84057690  0.45159494  0.61423144     0.09200
H2008       H  0.83874788  0.49040769  0.61402008     0.12800
H2009       H  0.91062812  0.45367900  0.61812772     0.11500
H2010       H  0.92937631  0.48830010  0.61897196     0.12700
H2011       H  0.92894110  0.52797252  0.61985316     0.11700
H2012       H  0.83831987  0.52431708  0.61582528     0.08800
H2013       H  0.83932982  0.56310785  0.61759021     0.12100
H2014       H  0.90946066  0.56222040  0.62038540     0.14000
C2015       C  0.87162900  0.63021566  0.30395092    -0.01600
C2016       C  0.88572562  0.61546103  0.29381526    -0.09600
C2017       C  0.88622165  0.61364775  0.27118000    -0.18400
C2018       C  0.87289986  0.62703568  0.25791317     0.04000
C2019       C  0.85929051  0.64266236  0.26833133     0.18200
C2020       C  0.85832978  0.64370041  0.29119708    -0.19800
C2021       C  0.84702065  0.65734927  0.25585776    -0.21100
C2022       C  0.84815632  0.65700717  0.23320592    -0.19600
C2023       C  0.86089262  0.64139351  0.22247368     0.19600
C2024       C  0.87295605  0.62578136  0.23469561     0.01700
C2025       C  0.88429752  0.60937602  0.22315376    -0.14400
C2026       C  0.88414453  0.60886787  0.20045225    -0.12100
C2027       C  0.87304722  0.62481982  0.18847613     0.01200
C2028       C  0.86146024  0.64109529  0.19956130    -0.24300
H2029       H  0.89621271  0.60502367  0.30350269     0.09200
H2030       H  0.89759145  0.60199510  0.26456440     0.12800
H2031       H  0.84770602  0.65542777  0.29909840     0.11500
H2032       H  0.83676948  0.66943274  0.26368228     0.12700
H2033       H  0.83876058  0.66883960  0.22401030     0.11700
H2034       H  0.89306032  0.59641847  0.23118929     0.08800
H2035       H  0.89301376  0.59601428  0.19219367     0.12100
H2036       H  0.85244536  0.65321471  0.19033767     0.14000
C2037       C  0.86834318  0.44889154  0.36782294    -0.01600
C2038       C  0.84839022  0.45999699  0.36688732    -0.09600
C2039       C  0.84767274  0.48274660  0.36705784    -0.18400
C2040       C  0.86703241  0.49522055  0.36824939     0.04000
C2041       C  0.88722453  0.48384034  0.36923557     0.18200
C2042       C  0.88769668  0.46097500  0.36893798    -0.19800
C2043       C  0.90687469  0.49531824  0.37063651    -0.21100
C2044       C  0.90694880  0.51794921  0.37118981    -0.19600
C2045       C  0.88738037  0.52966917  0.37025216     0.19600
C2046       C  0.86712137  0.51851878  0.36864907     0.01700
C2047       C  0.84787597  0.53120921  0.36755043    -0.14400
C2048       C  0.84873411  0.55393522  0.36825300    -0.12100
C2049       C  0.86871604  0.56483705  0.37002178     0.01200
C2050       C  0.88799155  0.55254071  0.37093405    -0.24300
H2051       H  0.83318154  0.45107654  0.36603930     0.09200
H2052       H  0.83170709  0.49003076  0.36636044     0.12800
H2053       H  0.90324575  0.45257854  0.36974128     0.11500
H2054       H  0.92231059  0.48672465  0.37140528     0.12700
H2055       H  0.92244486  0.52635092  0.37237411     0.11700
H2056       H  0.83189350  0.52411135  0.36610630     0.08800
H2057       H  0.83359218  0.56301022  0.36734440     0.12100
H2058       H  0.90357615  0.56076929  0.37220765     0.14000
C2059       C  0.87292110  0.63285003  0.55398127    -0.01600
C2060       C  0.89252791  0.63053958  0.54251830    -0.09600
C2061       C  0.89278682  0.63003680  0.51982271    -0.18400
C2062       C  0.87329853  0.63193640  0.50763289     0.04000
C2063       C  0.85336532  0.63402316  0.51927371     0.18200
C2064       C  0.85334093  0.63447361  0.54221583    -0.19800
C2065       C  0.83359523  0.63566060  0.50793860    -0.21100
C2066       C  0.83318617  0.63533004  0.48525164    -0.19600
C2067       C  0.85255186  0.63351582  0.47331100     0.19600
C2068       C  0.87290013  0.63185197  0.48434774     0.01700
C2069       C  0.89200726  0.63035310  0.47158354    -0.14400
C2070       C  0.89096646  0.63044442  0.44891730    -0.12100
C2071       C  0.87092992  0.63198359  0.43802832     0.01200
C2072       C  0.85172678  0.63347662  0.45036787    -0.24300
H2073       H  0.90788490  0.62900603  0.55113260     0.09200
H2074       H  0.90855880  0.62807533  0.51238035     0.12800
H2075       H  0.83804192  0.63615381  0.55089752     0.11500
H2076       H  0.81832449  0.63720679  0.51668424     0.12700
H2077       H  0.81761030  0.63662109  0.47698446     0.11700
H2078       H  0.90809361  0.62922571  0.47854559     0.08800
H2079       H  0.90608605  0.62929917  0.43987439     0.12100
H2080       H  0.83612043  0.63473320  0.44214045     0.14000
C2081       C  0.37685135  0.13063230  0.70158275    -0.01600
C2082       C  0.38572541  0.14859019  0.71251517    -0.09600
C2083       C  0.38685588  0.14894045  0.73529431    -0.18400
C2084       C  0.37875337  0.13136257  0.74784897     0.04000
C2085       C  0.36880627  0.11371191  0.73658319     0.18200
C2086       C  0.36827185  0.11335707  0.71374261    -0.19800
C2087       C  0.35944389  0.09644927  0.74813984    -0.21100
C2088       C  0.35970416  0.09627723  0.77074889    -0.19600
C2089       C  0.36990010  0.11303596  0.78233091     0.19600
C2090       C  0.37997773  0.13064925  0.77111687     0.01700
C2091       C  0.39111595  0.14648186  0.78371236    -0.14400
C2092       C  0.39186359  0.14495813  0.80647103    -0.12100
C2093       C  0.38113168  0.12799864  0.81724822     0.01200
C2094       C  0.37017240  0.11215852  0.80514487    -0.24300
H2095       H  0.39227304  0.16221824  0.70340066     0.09200
H2096       H  0.39397044  0.16322771  0.74261075     0.12800
H2097       H  0.36096060  0.09961332  0.70536815     0.11500
H2098       H  0.35171012  0.08304222  0.73962446     0.12700
H2099       H  0.35213217  0.08276450  0.77924081     0.11700
H2100       H  0.39962866  0.16000480  0.77643887     0.08800
H2101       H  0.40040561  0.15734099  0.81571565     0.12100
H2102       H  0.36209571  0.09888201  0.81358144     0.14000
C2103       C  0.30940340  0.12519654  0.63478866    -0.01600
C2104       C  0.29831351  0.10723672  0.64346437    -0.09600
C2105       C  0.27553866  0.10673887  0.64391825    -0.18400
C2106       C  0.26307211  0.12416657  0.63532378     0.04000
C2107       C  0.27445318  0.14197534  0.62581426     0.18200
C2108       C  0.29734107  0.14250424  0.62598596    -0.19800
C2109       C  0.26294547  0.15908365  0.61600487    -0.21100
C2110       C  0.24030844  0.15880208  0.61518863    -0.19600
C2111       C  0.22860782  0.14175932  0.62478583     0.19600
C2112       C  0.23976906  0.12445186  0.63550801     0.01700
C2113       C  0.22708515  0.10841209  0.64620016    -0.14400
C2114       C  0.20431745  0.10936674  0.64585407    -0.12100
C2115       C  0.19358984  0.12590962  0.63441734     0.01200
C2116       C  0.20574312  0.14203365  0.62390088    -0.24300
H2117       H  0.30729731  0.09358485  0.65020507     0.09200
H2118       H  0.26817300  0.09234507  0.65076226     0.12800
H2119       H  0.30580984  0.15628738  0.61886703     0.11500
H2120       H  0.27153024  0.17265023  0.60864002     0.12700
H2121       H  0.23187982  0.17214469  0.60720390     0.11700
H2122       H  0.23426969  0.09519134  0.65529448     0.08800
H2123       H  0.19502550  0.09693024  0.65426169     0.12100
H2124       H  0.19731851  0.15511024  0.61544772     0.14000
C2125       C  0.37396897  0.11682458  0.31694444    -0.01600
C2126       C  0.38557328  0.10063047  0.30582724    -0.09600
C2127       C  0.38621845  0.10037799  0.28304320    -0.18400
C2128       C  0.37474590  0.11613053  0.27063113     0.04000
C2129       C  0.36230488  0.13200080  0.28208523     0.18200
C2130       C  0.36246250  0.13252141  0.30498377    -0.19800
C2131       C  0.34957105  0.14711127  0.27063557    -0.21100
C2132       C  0.34877428  0.14674259  0.24799015    -0.19600
C2133       C  0.36130766  0.13176811  0.23619574     0.19600
C2134       C  0.37489120  0.11655803  0.24731726     0.01700
C2135       C  0.38829737  0.10274825  0.23459413    -0.14400
C2136       C  0.38803040  0.10390445  0.21184497    -0.12100
C2137       C  0.37403148  0.11835263  0.20106125     0.01200
C2138       C  0.36058700  0.13213514  0.21329016    -0.24300
H2139       H  0.39447534  0.08828569  0.31482095     0.09200
H2140       H  0.39546867  0.08741413  0.27562159     0.12800
H2141       H  0.35313224  0.14485543  0.31356663     0.11500
H2142       H  0.33991594  0.15913214  0.27927445     0.12700
H2143       H  0.33853046  0.15848854  0.23962620     0.11700
H2144       H  0.39951256  0.09124358  0.24174662     0.08800
H2145       H  0.39862806  0.09322101  0.20258952     0.12100
H2146       H  0.35002819  0.14362146  0.20492634     0.14000
C2147       C  0.37268899  0.11926295  0.45142128    -0.01600
C2148       C  0.37447574  0.09973513  0.46315420    -0.09600
C2149       C  0.37492405  0.09973197  0.48590142    -0.18400
C2150       C  0.37352431  0.11941050  0.49781994     0.04000
C2151       C  0.37126065  0.13916590  0.48587543     0.18200
C2152       C  0.37101235  0.13893979  0.46294998    -0.19800
C2153       C  0.36925325  0.15905230  0.49687231    -0.21100
C2154       C  0.36956275  0.15979062  0.51952220    -0.19600
C2155       C  0.37216429  0.14069418  0.53175529     0.19600
C2156       C  0.37425618  0.12021315  0.52111168     0.01700
C2157       C  0.37717936  0.10148116  0.53426685    -0.14400
C2158       C  0.37783296  0.10303586  0.55696251    -0.12100
C2159       C  0.37563651  0.12322925  0.56738990     0.01200
C2160       C  0.37279882  0.14200517  0.55462178    -0.24300
H2161       H  0.37569017  0.08427198  0.45471632     0.09200
H2162       H  0.37630023  0.08403517  0.49363226     0.12800
H2163       H  0.36944803  0.15415160  0.45408409     0.11500
H2164       H  0.36740416  0.17415956  0.48788902     0.12700
H2165       H  0.36792803  0.17545178  0.52752811     0.11700
H2166       H  0.37917010  0.08539361  0.52755726     0.08800
H2167       H  0.38014499  0.08827033  0.56638501     0.12100
H2168       H  0.37106712  0.15773877  0.56247591     0.14000
C2169       C  0.69440088  0.13046422  0.63005862    -0.01600
C2170       C  0.70510094  0.14822373  0.63955096    -0.09600
C2171       C  0.72779657  0.14928514  0.63992994    -0.18400
C2172       C  0.74060973  0.13266534  0.63039960     0.04000
C2173       C  0.72963578  0.11495013  0.62023137     0.18200
C2174       C  0.70674777  0.11376770  0.62056929    -0.19800
C2175       C  0.74155573  0.09872111  0.60949561    -0.21100
C2176       C  0.76417756  0.09980556  0.60843719    -0.19600
C2177       C  0.77546571  0.11674427  0.61872105     0.19600
C2178       C  0.76387771  0.13316121  0.63030285     0.01700
C2179       C  0.77611431  0.14913943  0.64157876    -0.14400
C2180       C  0.79885114  0.14887224  0.64118896    -0.12100
C2181       C  0.81003139  0.13311946  0.62914856     0.01200
C2182       C  0.79833962  0.11719566  0.61779828    -0.24300
H2183       H  0.69583937  0.16136757  0.64687301     0.09200
H2184       H  0.73478107  0.16356631  0.64737198     0.12800
H2185       H  0.69850457  0.10017169  0.61285316     0.11500
H2186       H  0.73330443  0.08525284  0.60159115     0.12700
H2187       H  0.77292700  0.08713933  0.59976011     0.11700
H2188       H  0.76864150  0.16174218  0.65126292     0.08800
H2189       H  0.80777931  0.16118488  0.65016719     0.12100
H2190       H  0.80712261  0.10474820  0.60881335     0.14000
C2191       C  0.62678613  0.13001955  0.69592394    -0.01600
C2192       C  0.64117789  0.14328173  0.70761075    -0.09600
C2193       C  0.64215629  0.14214714  0.73037327    -0.18400
C2194       C  0.62828352  0.12798081  0.74218552     0.04000
C2195       C  0.61296219  0.11537943  0.73018566     0.18200
C2196       C  0.61271071  0.11612878  0.70728774    -0.19800
C2197       C  0.59792899  0.10215513  0.74109998    -0.21100
C2198       C  0.59769894  0.10119451  0.76374419    -0.19600
C2199       C  0.61298139  0.11284629  0.77603200     0.19600
C2200       C  0.62883819  0.12602914  0.76542810     0.01700
C2201       C  0.64474410  0.13635860  0.77855091    -0.14400
C2202       C  0.64459706  0.13402554  0.80121671    -0.12100
C2203       C  0.62839722  0.12176016  0.81159184     0.01200
C2204       C  0.61261174  0.11123212  0.79889958    -0.24300
H2205       H  0.65212197  0.15417308  0.69905187     0.09200
H2206       H  0.65371273  0.15275620  0.73827973     0.12800
H2207       H  0.60130171  0.10609636  0.69823983     0.11500
H2208       H  0.58608733  0.09266109  0.73205542     0.12700
H2209       H  0.58566734  0.09100432  0.77169805     0.11700
H2210       H  0.65772231  0.14604292  0.77175004     0.08800
H2211       H  0.65701911  0.14221239  0.81073302     0.12100
H2212       H  0.60025998  0.10139871  0.80683771     0.14000
C2213       C  0.55999881  0.13022758  0.62874685    -0.01600
C2214       C  0.54866504  0.15007806  0.62825374    -0.09600
C2215       C  0.52592651  0.15063667  0.62925526    -0.18400
C2216       C  0.51361769  0.13121485  0.63082873     0.04000
C2217       C  0.52516184  0.11108927  0.63106848     0.18200
C2218       C  0.54806902  0.11077418  0.63005694    -0.19800
C2219       C  0.51378594  0.09136694  0.63235244    -0.21100
C2220       C  0.49113721  0.09115270  0.63333537    -0.19600
C2221       C  0.47927190  0.11066122  0.63319769     0.19600
C2222       C  0.49031936  0.13100276  0.63208223     0.01700
C2223       C  0.47753189  0.15021113  0.63229535    -0.14400
C2224       C  0.45480376  0.14922503  0.63318594    -0.12100
C2225       C  0.44395259  0.12914735  0.63393768     0.01200
C2226       C  0.45636758  0.10991488  0.63409428    -0.24300
H2227       H  0.55741114  0.16536904  0.62717215     0.09200
H2228       H  0.51850655  0.16655174  0.62873997     0.12800
H2229       H  0.55661720  0.09529340  0.63042609     0.11500
H2230       H  0.52247187  0.07596682  0.63253560     0.12700
H2231       H  0.48283524  0.07559094  0.63422265     0.11700
H2232       H  0.48456219  0.16628266  0.63178720     0.08800
H2233       H  0.44568201  0.16435904  0.63319919     0.12100
H2234       H  0.44820334  0.09426339  0.63476996     0.14000
C2235       C  0.62126414  0.12195995  0.31102977    -0.01600
C2236       C  0.60918067  0.10587198  0.30035998    -0.09600
C2237       C  0.60826722  0.10522898  0.27764698    -0.18400
C2238       C  0.62000363  0.12041539  0.26489001     0.04000
C2239       C  0.63312082  0.13604745  0.27587805     0.18200
C2240       C  0.63313195  0.13708266  0.29874912    -0.19800
C2241       C  0.64644951  0.15023117  0.26398406    -0.21100
C2242       C  0.64734632  0.14893436  0.24136804    -0.19600
C2243       C  0.63417485  0.13412123  0.23007807     0.19600
C2244       C  0.61969383  0.12022473  0.24164521     0.01700
C2245       C  0.60534517  0.10693748  0.22943281    -0.14400
C2246       C  0.60605788  0.10678098  0.20670570    -0.12100
C2247       C  0.62135179  0.11941664  0.19553202     0.01200
C2248       C  0.63528411  0.13316701  0.20724457    -0.24300
H2249       H  0.60014788  0.09389022  0.30966541     0.09200
H2250       H  0.59875611  0.09228304  0.27054288     0.12800
H2251       H  0.64294293  0.14921894  0.30705307     0.11500
H2252       H  0.65662709  0.16206298  0.27225586     0.12700
H2253       H  0.65821597  0.15976900  0.23263387     0.11700
H2254       H  0.59312900  0.09681890  0.23697060     0.08800
H2255       H  0.59490826  0.09635828  0.19781908     0.12100
H2256       H  0.64671314  0.14343787  0.19851285     0.14000
C2257       C  0.55653519  0.11851916  0.38015486    -0.01600
C2258       C  0.54606676  0.09821400  0.38059300    -0.09600
C2259       C  0.52330022  0.09683690  0.38130983    -0.18400
C2260       C  0.51020522  0.11586088  0.38165669     0.04000
C2261       C  0.52098123  0.13636993  0.38107821     0.18200
C2262       C  0.54380007  0.13748975  0.38026805    -0.19800
C2263       C  0.50896351  0.15575110  0.38143126    -0.21100
C2264       C  0.48637364  0.15529099  0.38245384    -0.19600
C2265       C  0.47520795  0.13543583  0.38303463     0.19600
C2266       C  0.48688055  0.11538689  0.38260645     0.01700
C2267       C  0.47463670  0.09584674  0.38313467    -0.14400
C2268       C  0.45182901  0.09627796  0.38393258    -0.12100
C2269       C  0.44044532  0.11611740  0.38426363     0.01200
C2270       C  0.45234511  0.13560877  0.38392090    -0.24300
H2271       H  0.55549729  0.08327560  0.38042730     0.09200
H2272       H  0.51646049  0.08067243  0.38166511     0.12800
H2273       H  0.55166412  0.15330687  0.37984850     0.11500
H2274       H  0.51710816  0.17141875  0.38098410     0.12700
H2275       H  0.47755471  0.17061669  0.38275364     0.11700
H2276       H  0.48218556  0.07997980  0.38284680     0.08800
H2277       H  0.44307554  0.08095653  0.38416099     0.12100
H2278       H  0.44378456  0.15108790  0.38418205     0.14000
C2279       C  0.62895685  0.12805936  0.56130830    -0.01600
C2280       C  0.62790505  0.10785323  0.55069117    -0.09600
C2281       C  0.62826148  0.10647587  0.52799870    -0.18400
C2282       C  0.62966515  0.12540517  0.51492706     0.04000
C2283       C  0.63093551  0.14590265  0.52569012     0.18200
C2284       C  0.63065161  0.14704949  0.54863705    -0.19800
C2285       C  0.63218735  0.16514929  0.51347174    -0.21100
C2286       C  0.63164493  0.16453898  0.49079086    -0.19600
C2287       C  0.63005578  0.14465012  0.47971061     0.19600
C2288       C  0.62944548  0.12475627  0.49160628     0.01700
C2289       C  0.62843258  0.10509565  0.47961753    -0.14400
C2290       C  0.62740645  0.10522429  0.45689537    -0.12100
C2291       C  0.62734420  0.12486045  0.44521244     0.01200
C2292       C  0.62890390  0.14454508  0.45677683    -0.24300
H2293       H  0.62662186  0.09288406  0.55997116     0.09200
H2294       H  0.62714293  0.09032370  0.52123207     0.12800
H2295       H  0.63157775  0.16278742  0.55661432     0.11500
H2296       H  0.63328256  0.18083243  0.52152234     0.12700
H2297       H  0.63232349  0.17976539  0.48185000     0.11700
H2298       H  0.62836701  0.08929484  0.48727296     0.08800
H2299       H  0.62647238  0.08975246  0.44844707     0.12100
H2300       H  0.62916731  0.15985147  0.44794106     0.14000
C2301       C  0.12874538  0.62804139  0.68831008    -0.01600
C2302       C  0.11323773  0.61514881  0.69890808    -0.09600
C2303       C  0.11265387  0.61400506  0.72163017    -0.18400
C2304       C  0.12738841  0.62618763  0.73453450     0.04000
C2305       C  0.14250416  0.63997054  0.72364600     0.18200
C2306       C  0.14339151  0.64037500  0.70075228    -0.19800
C2307       C  0.15648740  0.65340918  0.73566626    -0.21100
C2308       C  0.15571882  0.65355058  0.75832794    -0.19600
C2309       C  0.14151048  0.63967439  0.76954308     0.19600
C2310       C  0.12748359  0.62541563  0.75781555     0.01700
C2311       C  0.11446702  0.61072928  0.76991169    -0.14400
C2312       C  0.11515981  0.61045172  0.79265244    -0.12100
C2313       C  0.12838006  0.62507388  0.80407908     0.01200
C2314       C  0.14144172  0.63974510  0.79246187    -0.24300
H2315       H  0.10171395  0.60558422  0.68954215     0.09200
H2316       H  0.10022699  0.60375433  0.72860196     0.12800
H2317       H  0.15518380  0.65068356  0.69257024     0.11500
H2318       H  0.16791362  0.66409327  0.72747588     0.12700
H2319       H  0.16656350  0.66434455  0.76715222     0.11700
H2320       H  0.10393122  0.59893902  0.76228003     0.08800
H2321       H  0.10502408  0.59893262  0.80138891     0.12100
H2322       H  0.15198912  0.65083990  0.80129716     0.14000
C2323       C  0.12578288  0.69578830  0.62250508    -0.01600
C2324       C  0.11047981  0.70653711  0.60940728    -0.09600
C2325       C  0.10860010  0.72923746  0.60996652    -0.18400
C2326       C  0.12171324  0.74184657  0.62415046     0.04000
C2327       C  0.13629447  0.73062730  0.63831538     0.18200
C2328       C  0.13859213  0.70788649  0.63697263    -0.19800
C2329       C  0.14842122  0.74214942  0.65381287    -0.21100
C2330       C  0.14660529  0.76467383  0.65540077    -0.19600
C2331       C  0.13329283  0.77631375  0.64095374     0.19600
C2332       C  0.12087867  0.76512662  0.62487690     0.01700
C2333       C  0.10877187  0.77778717  0.60981663    -0.14400
C2334       C  0.10915978  0.80056304  0.61064864    -0.12100
C2335       C  0.12104587  0.81139063  0.62683015     0.01200
C2336       C  0.13278245  0.79916869  0.64214063    -0.24300
H2337       H  0.10016208  0.69734508  0.59840820     0.09200
H2338       H  0.09650760  0.73641693  0.59940481     0.12800
H2339       H  0.15000696  0.69948892  0.64758409     0.11500
H2340       H  0.15930977  0.73366335  0.66487224     0.12700
H2341       H  0.15614200  0.77311159  0.66765220     0.11700
H2342       H  0.09939149  0.77058461  0.59682756     0.08800
H2343       H  0.09994423  0.80977226  0.59869922     0.12100
H2344       H  0.14221353  0.80753825  0.65454150     0.14000
C2345       C  0.12663988  0.62413708  0.18810655    -0.01600
C2346       C  0.11686127  0.64139034  0.19935526    -0.09600
C2347       C  0.11673187  0.64180590  0.22208161    -0.18400
C2348       C  0.12685075  0.62506544  0.23432229     0.04000
C2349       C  0.13767476  0.60812533  0.22277286     0.18200
C2350       C  0.13701140  0.60751850  0.19988229    -0.19800
C2351       C  0.14929632  0.59207087  0.23413641    -0.21100
C2352       C  0.15057230  0.59259400  0.25677659    -0.19600
C2353       C  0.13949767  0.60864880  0.26863209     0.19600
C2354       C  0.12694126  0.62474546  0.25758193     0.01700
C2355       C  0.11468058  0.63956652  0.27030367    -0.14400
C2356       C  0.11531212  0.63874502  0.29301310    -0.12100
C2357       C  0.12853053  0.62357612  0.30372667     0.01200
C2358       C  0.14065878  0.60858772  0.29151856    -0.24300
H2359       H  0.10896710  0.65450775  0.19051158     0.09200
H2360       H  0.10899970  0.65568707  0.22958003     0.12800
H2361       H  0.14503447  0.59438069  0.19118263     0.11500
H2362       H  0.15774635  0.57921973  0.22543720     0.12700
H2363       H  0.15999512  0.58014613  0.26508851     0.11700
H2364       H  0.10407080  0.65165984  0.26319954     0.08800
H2365       H  0.10570947  0.65031790  0.30229075     0.12100
H2366       H  0.15057007  0.59654671  0.29988754     0.14000
C2367       C  0.13369173  0.62881205  0.55394634    -0.01600
C2368       C  0.15340924  0.63214835  0.54289891    -0.09600
C2369       C  0.15420989  0.63198467  0.52011435    -0.18400
C2370       C  0.13519205  0.62837533  0.50753456     0.04000
C2371       C  0.11528530  0.62480337  0.51885747     0.18200
C2372       C  0.11471710  0.62510130  0.54173630    -0.19800
C2373       C  0.09599319  0.62092907  0.50730959    -0.21100
C2374       C  0.09596947  0.62054326  0.48467953    -0.19600
C2375       C  0.11523107  0.62406097  0.47300469     0.19600
C2376       C  0.13514810  0.62808293  0.48419889     0.01700
C2377       C  0.15407708  0.63160431  0.47150022    -0.14400
C2378       C  0.15325743  0.63088756  0.44873223    -0.12100
C2379       C  0.13360296  0.62676729  0.43781724     0.01200
C2380       C  0.11463813  0.62349389  0.45013064    -0.24300
H2381       H  0.16833977  0.63499233  0.55189594     0.09200
H2382       H  0.16996710  0.63469541  0.51285685     0.12800
H2383       H  0.09936915  0.62234576  0.55005738     0.11500
H2384       H  0.08078271  0.61815027  0.51585271     0.12700
H2385       H  0.08074562  0.61746118  0.47623901     0.11700
H2386       H  0.16977585  0.63493995  0.47865335     0.08800
H2387       H  0.16813001  0.63364232  0.43963654     0.12100
H2388       H  0.09930801  0.62031782  0.44190329     0.14000
C2389       C  0.13145931  0.19624402  0.63087351    -0.01600
C2390       C  0.14168366  0.20744306  0.64791770    -0.09600
C2391       C  0.14358612  0.23013175  0.64742679    -0.18400
C2392       C  0.13486084  0.24243350  0.62994430     0.04000
C2393       C  0.12402582  0.23096676  0.61295079     0.18200
C2394       C  0.12280955  0.20810685  0.61335647    -0.19800
C2395       C  0.11417177  0.24238347  0.59580600    -0.21100
C2396       C  0.11444895  0.26502929  0.59535735    -0.19600
C2397       C  0.12515610  0.27679801  0.61169079     0.19600
C2398       C  0.13606592  0.26568243  0.62891263     0.01700
C2399       C  0.14777654  0.27835385  0.64423824    -0.14400
C2400       C  0.14813270  0.30107958  0.64277289    -0.12100
C2401       C  0.13647391  0.31183785  0.62639000     0.01200
C2402       C  0.12505258  0.29967504  0.61087849    -0.24300
H2403       H  0.14847771  0.19857976  0.66161807     0.09200
H2404       H  0.15158286  0.23758513  0.66117430     0.12800
H2405       H  0.11460922  0.19953973  0.60024393     0.11500
H2406       H  0.10584282  0.23374149  0.58283773     0.12700
H2407       H  0.10632795  0.27340072  0.58206370     0.11700
H2408       H  0.15702986  0.27119019  0.65735609     0.08800
H2409       H  0.15718109  0.31033962  0.65478649     0.12100
H2410       H  0.11636984  0.30807528  0.59793984     0.14000
C2411       C  0.13440324  0.38049152  0.69142191    -0.01600
C2412       C  0.15039061  0.39200845  0.70290037    -0.09600
C2413       C  0.14959405  0.39348625  0.72559122    -0.18400
C2414       C  0.13290475  0.38303255  0.73756767     0.04000
C2415       C  0.11737840  0.37042785  0.72585515     0.18200
C2416       C  0.11794507  0.36971376  0.70298466    -0.19800
C2417       C  0.10152296  0.35845138  0.73704592    -0.21100
C2418       C  0.10086938  0.35855982  0.75970232    -0.19600
C2419       C  0.11545306  0.37139002  0.77166696     0.19600
C2420       C  0.13127459  0.38432631  0.76074135     0.01700
C2421       C  0.14446250  0.39832330  0.77346177    -0.14400
C2422       C  0.14236973  0.39899719  0.79610320    -0.12100
C2423       C  0.12753322  0.38541757  0.80678470     0.01200
C2424       C  0.11414063  0.37160310  0.79452326    -0.24300
H2425       H  0.16337649  0.40026232  0.69424832     0.09200
H2426       H  0.16250259  0.40255492  0.73332186     0.12800
H2427       H  0.10580087  0.36037489  0.69415933     0.11500
H2428       H  0.08975700  0.34866070  0.72822449     0.12700
H2429       H  0.08863026  0.34883107  0.76791131     0.11700
H2430       H  0.15618337  0.40929784  0.76635135     0.08800
H2431       H  0.15268874  0.40993210  0.80536874     0.12100
H2432       H  0.10229300  0.36142072  0.80278858     0.14000
C2433       C  0.13493101  0.56189149  0.62161774    -0.01600
C2434       C  0.15499713  0.55098725  0.62156186    -0.09600
C2435       C  0.15588841  0.52823186  0.62191392    -0.18400
C2436       C  0.13659627  0.51556991  0.62237687     0.04000
C2437       C  0.11629665  0.52675329  0.62269038     0.18200
C2438       C  0.11565591  0.54960156  0.62221536    -0.19800
C2439       C  0.09670633  0.51509773  0.62352273    -0.21100
C2440       C  0.09679624  0.49245525  0.62402469    -0.19600
C2441       C  0.11647454  0.48090098  0.62350906     0.19600
C2442       C  0.13667119  0.49227441  0.62259393     0.01700
C2443       C  0.15604031  0.47980724  0.62181414    -0.14400
C2444       C  0.15538613  0.45709976  0.62207374    -0.12100
C2445       C  0.13549002  0.44593621  0.62312260     0.01200
C2446       C  0.11606162  0.45798905  0.62383030    -0.24300
H2447       H  0.17012730  0.56006831  0.62122335     0.09200
H2448       H  0.17194585  0.52108770  0.62191043     0.12800
H2449       H  0.09999452  0.55782886  0.62240564     0.11500
H2450       H  0.08118274  0.52356211  0.62383120     0.12700
H2451       H  0.08134874  0.48391797  0.62471777     0.11700
H2452       H  0.17199797  0.48707263  0.62088381     0.08800
H2453       H  0.17066453  0.44824095  0.62143075     0.12100
H2454       H  0.10055665  0.44955064  0.62460867     0.14000
C2455       C  0.12045094  0.37567852  0.30710373    -0.01600
C2456       C  0.10247685  0.38545618  0.29690725    -0.09600
C2457       C  0.10132256  0.38691183  0.27416782    -0.18400
C2458       C  0.11806161  0.37823075  0.26085085     0.04000
C2459       C  0.13588611  0.36770188  0.27135190     0.18200
C2460       C  0.13708082  0.36685646  0.29419161    -0.19800
C2461       C  0.15241247  0.35795555  0.25902067    -0.21100
C2462       C  0.15158959  0.35825129  0.23639582    -0.19600
C2463       C  0.13455156  0.36885150  0.22551774     0.19600
C2464       C  0.11773531  0.37940293  0.23754794     0.01700
C2465       C  0.10159619  0.39093370  0.22569035    -0.14400
C2466       C  0.10217000  0.39183118  0.20291418    -0.12100
C2467       C  0.11839546  0.38082136  0.19127874     0.01200
C2468       C  0.13442191  0.36921615  0.20261709    -0.24300
H2469       H  0.08941303  0.39236892  0.30657084     0.09200
H2470       H  0.08702547  0.39467878  0.26749649     0.12800
H2471       H  0.15091053  0.35900049  0.30196684     0.11500
H2472       H  0.16598747  0.34983548  0.26694320     0.12700
H2473       H  0.16454419  0.35035790  0.22732842     0.11700
H2474       H  0.08860635  0.39977065  0.23355199     0.08800
H2475       H  0.08971114  0.40096377  0.19430467     0.12100
H2476       H  0.14719487  0.36098839  0.19355782     0.14000
C2477       C  0.12856200  0.44155870  0.37382736    -0.01600
C2478       C  0.14873136  0.45207645  0.37574965    -0.09600
C2479       C  0.15010998  0.47476066  0.37539827    -0.18400
C2480       C  0.13122820  0.48779773  0.37298401     0.04000
C2481       C  0.11078339  0.47703694  0.37101317     0.18200
C2482       C  0.10963286  0.45417830  0.37150857    -0.19800
C2483       C  0.09158421  0.48913994  0.36855204    -0.21100
C2484       C  0.09219075  0.51177267  0.36816038    -0.19600
C2485       C  0.11201563  0.52286442  0.37018225     0.19600
C2486       C  0.13186090  0.51107578  0.37251054     0.01700
C2487       C  0.15143384  0.52313856  0.37427730    -0.14400
C2488       C  0.15124427  0.54588528  0.37392145    -0.12100
C2489       C  0.13162272  0.55741550  0.37184783     0.01200
C2490       C  0.11207072  0.54574400  0.36991876    -0.24300
H2491       H  0.16361067  0.44272627  0.37763917     0.09200
H2492       H  0.16621746  0.48154639  0.37707231     0.12800
H2493       H  0.09393846  0.44620613  0.36991905     0.11500
H2494       H  0.07596152  0.48104181  0.36697782     0.12700
H2495       H  0.07702076  0.52067320  0.36630338     0.11700
H2496       H  0.16718689  0.51552914  0.37596010     0.08800
H2497       H  0.16659635  0.55447540  0.37537342     0.12100
H2498       H  0.09678111  0.55447471  0.36816125     0.14000
C2499       C  0.13125789  0.37486725  0.44120182    -0.01600
C2500       C  0.15174766  0.37500033  0.45135774    -0.09600
C2501       C  0.15354991  0.37556697  0.47407195    -0.18400
C2502       C  0.13478248  0.37599979  0.48746940     0.04000
C2503       C  0.11405177  0.37583424  0.47704345     0.18200
C2504       C  0.11249815  0.37528635  0.45422599    -0.19800
C2505       C  0.09491507  0.37621657  0.48942217    -0.21100
C2506       C  0.09585490  0.37672808  0.51202024    -0.19600
C2507       C  0.11595633  0.37688324  0.52281804     0.19600
C2508       C  0.13575353  0.37655435  0.51077109     0.01700
C2509       C  0.15557194  0.37676858  0.52262761    -0.14400
C2510       C  0.15565669  0.37719743  0.54542135    -0.12100
C2511       C  0.13607312  0.37745282  0.55716916     0.01200
C2512       C  0.11629867  0.37733420  0.54567664    -0.24300
H2513       H  0.16652601  0.37472846  0.44171007     0.09200
H2514       H  0.16985980  0.37565405  0.48062579     0.12800
H2515       H  0.09653646  0.37519363  0.44659808     0.11500
H2516       H  0.07907529  0.37609814  0.48156276     0.12700
H2517       H  0.08071892  0.37698754  0.52112919     0.11700
H2518       H  0.17128714  0.37659958  0.51478556     0.08800
H2519       H  0.17117139  0.37733163  0.55386942     0.12100
H2520       H  0.10100853  0.37755009  0.55454207     0.14000
C2521       C  0.80527046  0.88183738  0.37206492    -0.01600
C2522       C  0.79321990  0.89564159  0.35851623    -0.09600
C2523       C  0.77059226  0.89672366  0.36023445    -0.18400
C2524       C  0.75922656  0.88351911  0.37532179     0.04000
C2525       C  0.77152665  0.86883720  0.38842884     0.18200
C2526       C  0.79441583  0.86854265  0.38710677    -0.19800
C2527       C  0.76086950  0.85432834  0.40245367    -0.21100
C2528       C  0.73819204  0.85380061  0.40341801    -0.19600
C2529       C  0.72566425  0.86835577  0.39102514     0.19600
C2530       C  0.73606586  0.88393836  0.37739135     0.01700
C2531       C  0.72283686  0.89936601  0.36648441    -0.14400
C2532       C  0.70020196  0.89865082  0.36817179    -0.12100
C2533       C  0.68996967  0.88243129  0.38047332     0.01200
C2534       C  0.70276899  0.86743233  0.39208281    -0.24300
H2535       H  0.80141043  0.90593405  0.34673226     0.09200
H2536       H  0.76243966  0.90765299  0.34913364     0.12800
H2537       H  0.80377808  0.85754579  0.39733670     0.11500
H2538       H  0.77011908  0.84298866  0.41238646     0.12700
H2539       H  0.73040595  0.84203940  0.41404290     0.11700
H2540       H  0.72948584  0.91234647  0.35670751     0.08800
H2541       H  0.69060557  0.91055291  0.35928280     0.12100
H2542       H  0.69489698  0.85514310  0.40204455     0.14000
C2543       C  0.87260855  0.81497382  0.36999570    -0.01600
C2544       C  0.88579831  0.80406922  0.38510583    -0.09600
C2545       C  0.88622802  0.78130824  0.38589495    -0.18400
C2546       C  0.87301341  0.76870479  0.37180173     0.04000
C2547       C  0.85878638  0.77994255  0.35730787     0.18200
C2548       C  0.85908541  0.80282635  0.35617868    -0.19800
C2549       C  0.84425807  0.76828360  0.34413119    -0.21100
C2550       C  0.84355621  0.74564078  0.34500269    -0.19600
C2551       C  0.85792543  0.73406418  0.35846846     0.19600
C2552       C  0.87321127  0.74540164  0.37171672     0.01700
C2553       C  0.88833708  0.73290151  0.38390139    -0.14400
C2554       C  0.88803802  0.71014058  0.38318301    -0.12100
C2555       C  0.87238766  0.69912636  0.37079632     0.01200
C2556       C  0.85730734  0.71116267  0.35854384    -0.24300
H2557       H  0.89614218  0.81320602  0.39612810     0.09200
H2558       H  0.89677799  0.77405708  0.39795462     0.12800
H2559       H  0.84842933  0.81125055  0.34483096     0.11500
H2560       H  0.83319961  0.77674916  0.33322760     0.12700
H2561       H  0.83195886  0.73710540  0.33476693     0.11700
H2562       H  0.90089308  0.74024062  0.39375880     0.08800
H2563       H  0.89989065  0.70107668  0.39267407     0.12100
H2564       H  0.84540807  0.70264567  0.34861787     0.14000
C2565       C  0.87340458  0.19939452  0.36322505    -0.01600
C2566       C  0.88712770  0.21097611  0.34921661    -0.09600
C2567       C  0.88786225  0.23370925  0.34992528    -0.18400
C2568       C  0.87435719  0.24556972  0.36438582     0.04000
C2569       C  0.85961937  0.23367551  0.37773198     0.18200
C2570       C  0.85969183  0.21079012  0.37745480    -0.19800
C2571       C  0.84472686  0.24469020  0.39105571    -0.21100
C2572       C  0.84400727  0.26734166  0.39127282    -0.19600
C2573       C  0.85877044  0.27950734  0.37887205     0.19600
C2574       C  0.87461066  0.26878980  0.36575632     0.01700
C2575       C  0.89022135  0.28177396  0.35487018    -0.14400
C2576       C  0.88962860  0.30445405  0.35638615    -0.12100
C2577       C  0.87326584  0.31489489  0.36835849     0.01200
C2578       C  0.85790525  0.30236963  0.37961793    -0.24300
H2579       H  0.89762104  0.20236706  0.33791278     0.09200
H2580       H  0.89877937  0.24154804  0.33862626     0.12800
H2581       H  0.84865317  0.20179542  0.38792537     0.11500
H2582       H  0.83330481  0.23572029  0.40110126     0.12700
H2583       H  0.83202721  0.27540173  0.40145663     0.11700
H2584       H  0.90331194  0.27487177  0.34540034     0.08800
H2585       H  0.90177872  0.31391531  0.34775098     0.12100
H2586       H  0.84550839  0.31045319  0.38929858     0.14000
C2587       C  0.80509658  0.13271244  0.36321857    -0.01600
C2588       C  0.79248099  0.14472218  0.34848266    -0.09600
C2589       C  0.76973074  0.14460070  0.34995775    -0.18400
C2590       C  0.75897876  0.13198475  0.36602099     0.04000
C2591       C  0.77197872  0.11894154  0.38012126     0.18200
C2592       C  0.79475867  0.11979902  0.37890532    -0.19800
C2593       C  0.76220250  0.10500138  0.39528019    -0.21100
C2594       C  0.73966022  0.10360454  0.39669385    -0.19600
C2595       C  0.72639447  0.11672548  0.38356002     0.19600
C2596       C  0.73584022  0.13155159  0.36843022     0.01700
C2597       C  0.72171710  0.14553906  0.35669781    -0.14400
C2598       C  0.69916284  0.14439029  0.35949537    -0.12100
C2599       C  0.69003564  0.12899780  0.37361013     0.01200
C2600       C  0.70368018  0.11522618  0.38560467    -0.24300
H2601       H  0.80025340  0.15458114  0.33607056     0.09200
H2602       H  0.76100249  0.15422433  0.33810401     0.12800
H2603       H  0.80453613  0.11004723  0.38998966     0.11500
H2604       H  0.77206690  0.09488912  0.40592954     0.12700
H2605       H  0.73255445  0.09242134  0.40837390     0.11700
H2606       H  0.72762784  0.15776909  0.34555916     0.08800
H2607       H  0.68876030  0.15527063  0.35021559     0.12100
H2608       H  0.69657288  0.10360069  0.39686961     0.14000
C2609       C  0.86879076  0.06528656  0.36100900    -0.01600
C2610       C  0.86878985  0.05385292  0.34124737    -0.09600
C2611       C  0.86795004  0.03109332  0.34093316    -0.18400
C2612       C  0.86712459  0.01892377  0.36052607     0.04000
C2613       C  0.86664287  0.03064410  0.38051027     0.18200
C2614       C  0.86742356  0.05352065  0.38056979    -0.19800
C2615       C  0.86572346  0.01947744  0.40038397    -0.21100
C2616       C  0.86587904  0.99683487  0.40091773    -0.19600
C2617       C  0.86688306  0.98477679  0.38158812     0.19600
C2618       C  0.86717735  0.99560386  0.36107648     0.01700
C2619       C  0.86786326  0.98258248  0.34206953    -0.14400
C2620       C  0.86882606  0.95987167  0.34342507    -0.12100
C2621       C  0.86911192  0.94928734  0.36368501     0.01200
C2622       C  0.86786208  0.96190501  0.38270315    -0.24300
H2623       H  0.86965569  0.06251526  0.32588098     0.09200
H2624       H  0.86821092  0.02353813  0.32509893     0.12800
H2625       H  0.86718724  0.06216524  0.39597889     0.11500
H2626       H  0.86519557  0.02832518  0.41566418     0.12700
H2627       H  0.86546672  0.98869347  0.41659671     0.11700
H2628       H  0.86782504  0.98941970  0.32590204     0.08800
H2629       H  0.86951690  0.95056556  0.32843921     0.12100
H2630       H  0.86780127  0.95393330  0.39848066     0.14000
C2631       C  0.12302742  0.80701167  0.36403634    -0.01600
C2632       C  0.13525382  0.79614391  0.34812910    -0.09600
C2633       C  0.13693727  0.77344036  0.34823332    -0.18400
C2634       C  0.12603628  0.76082208  0.36413937     0.04000
C2635       C  0.11254958  0.77189920  0.37940238     0.18200
C2636       C  0.11156108  0.79478598  0.37952756    -0.19800
C2637       C  0.10012422  0.76006723  0.39442392    -0.21100
C2638       C  0.10081370  0.73741320  0.39464156    -0.19600
C2639       C  0.11460921  0.72608154  0.38043586     0.19600
C2640       C  0.12784488  0.73763397  0.36532962     0.01700
C2641       C  0.14267589  0.72550100  0.35246859    -0.14400
C2642       C  0.14389448  0.70282419  0.35421322    -0.12100
C2643       C  0.13006796  0.69153793  0.36837041     0.01200
C2644       C  0.11544447  0.70323031  0.38141889    -0.24300
H2645       H  0.14401082  0.80528877  0.33582572     0.09200
H2646       H  0.14664360  0.76621470  0.33549599     0.12800
H2647       H  0.10163908  0.80311723  0.39155908     0.11500
H2648       H  0.08962644  0.76838805  0.40594680     0.12700
H2649       H  0.09079812  0.72870798  0.40629471     0.11700
H2650       H  0.15384809  0.73310882  0.34125509     0.08800
H2651       H  0.15538894  0.69401601  0.34410100     0.12100
H2652       H  0.10500150  0.69450795  0.39270383     0.14000
C2653       C  0.18961835  0.87377404  0.37069666    -0.01600
C2654       C  0.19980187  0.86086879  0.38654303    -0.09600
C2655       C  0.22251605  0.86021385  0.38822660    -0.18400
C2656       C  0.23579226  0.87296763  0.37435216     0.04000
C2657       C  0.22527070  0.88696233  0.35911630     0.18200
C2658       C  0.20243112  0.88681284  0.35703800    -0.19800
C2659       C  0.23759646  0.90116667  0.34621190    -0.21100
C2660       C  0.26018865  0.90184247  0.34816004    -0.19600
C2661       C  0.27108780  0.88767846  0.36238378     0.19600
C2662       C  0.25908348  0.87261022  0.37526720     0.01700
C2663       C  0.27094279  0.85752692  0.38810727    -0.14400
C2664       C  0.29372138  0.85773790  0.38844626    -0.12100
C2665       C  0.30539137  0.87325824  0.37648516     0.01200
C2666       C  0.29397954  0.88824927  0.36354882    -0.24300
H2667       H  0.19013373  0.85091796  0.39746113     0.09200
H2668       H  0.22919673  0.84993220  0.40083276     0.12800
H2669       H  0.19454995  0.89726044  0.34512190     0.11500
H2670       H  0.22968209  0.91205241  0.33473778     0.12700
H2671       H  0.26923471  0.91324635  0.33815993     0.11700
H2672       H  0.26308735  0.84503277  0.39763213     0.08800
H2673       H  0.30226953  0.84586142  0.39836685     0.12100
H2674       H  0.30298881  0.89998228  0.35387677     0.14000
C2675       C  0.93922927  0.88218182  0.36239819    -0.01600
C2676       C  0.95002477  0.88274820  0.34226477    -0.09600
C2677       C  0.97281758  0.88161353  0.34118248    -0.18400
C2678       C  0.98560625  0.87970934  0.36032685     0.04000
C2679       C  0.97450502  0.87932282  0.38067358     0.18200
C2680       C  0.95168505  0.88064848  0.38150696    -0.19800
C2681       C  0.98619041  0.87744400  0.40017196    -0.21100
C2682       C  0.00875779  0.87593035  0.39999012    -0.19600
C2683       C  0.02023640  0.87627963  0.38030600     0.19600
C2684       C  0.00892306  0.87812793  0.36013749     0.01700
C2685       C  0.02150691  0.87828380  0.34078790    -0.14400
C2686       C  0.04430758  0.87691201  0.34153428    -0.12100
C2687       C  0.05531982  0.87534209  0.36151794     0.01200
C2688       C  0.04306047  0.87489316  0.38079239    -0.24300
H2689       H  0.94082069  0.88400992  0.32724038     0.09200
H2690       H  0.97993949  0.88214985  0.32512961     0.12800
H2691       H  0.94357911  0.88015345  0.39720455     0.11500
H2692       H  0.97780165  0.87711115  0.41571449     0.12700
H2693       H  0.01731053  0.87450002  0.41539987     0.11700
H2694       H  0.01421321  0.87953293  0.32483434     0.08800
H2695       H  0.05334749  0.87726752  0.32638530     0.12100
H2696       H  0.05131440  0.87359541  0.39638556     0.14000
C2697       C  0.18980515  0.12617282  0.37718171    -0.01600
C2698       C  0.20206494  0.13957967  0.36341036    -0.09600
C2699       C  0.22483913  0.13967935  0.36445617    -0.18400
C2700       C  0.23620623  0.12578971  0.37900009     0.04000
C2701       C  0.22367340  0.11182627  0.39261085     0.18200
C2702       C  0.20070220  0.11255836  0.39200223    -0.19800
C2703       C  0.23415049  0.09684644  0.40633483    -0.21100
C2704       C  0.25680384  0.09510918  0.40652362    -0.19600
C2705       C  0.26963025  0.10885140  0.39358857     0.19600
C2706       C  0.25951854  0.12483699  0.38011487     0.01700
C2707       C  0.27320142  0.13927363  0.36847895    -0.14400
C2708       C  0.29587940  0.13760312  0.36982396    -0.12100
C2709       C  0.30576132  0.12127442  0.38237132     0.01200
C2710       C  0.29253985  0.10686477  0.39418386    -0.24300
H2711       H  0.19395015  0.15015146  0.35179093     0.09200
H2712       H  0.23308750  0.15033951  0.35321002     0.12800
H2713       H  0.19127608  0.10186949  0.40245030     0.11500
H2714       H  0.22473420  0.08606368  0.41667284     0.12700
H2715       H  0.26435535  0.08304648  0.41701969     0.11700
H2716       H  0.26688118  0.15230345  0.35851259     0.08800
H2717       H  0.30579390  0.14902683  0.36071934     0.12100
H2718       H  0.30011210  0.09446945  0.40428632     0.14000
C2719       C  0.12200953  0.19164385  0.37336087    -0.01600
C2720       C  0.13642542  0.20256817  0.35952167    -0.09600
C2721       C  0.13743766  0.22524322  0.35932468    -0.18400
C2722       C  0.12360948  0.23786782  0.37275505     0.04000
C2723       C  0.10839364  0.22671791  0.38623655     0.18200
C2724       C  0.10808158  0.20375561  0.38682370    -0.19800
C2725       C  0.09343354  0.23857622  0.39876621    -0.21100
C2726       C  0.09317444  0.26127494  0.39809171    -0.19600
C2727       C  0.10834640  0.27270417  0.38544205     0.19600
C2728       C  0.12411421  0.26113751  0.37298444     0.01700
C2729       C  0.13993428  0.27336289  0.36153979    -0.14400
C2730       C  0.13985342  0.29606352  0.36213357    -0.12100
C2731       C  0.12386798  0.30740769  0.37378449     0.01200
C2732       C  0.10806379  0.29565602  0.38535879    -0.24300
H2733       H  0.14721377  0.19345329  0.34890434     0.09200
H2734       H  0.14889710  0.23237469  0.34810284     0.12800
H2735       H  0.09659539  0.19530454  0.39725789     0.11500
H2736       H  0.08165197  0.23023103  0.40893461     0.12700
H2737       H  0.08120489  0.26995860  0.40776111     0.11700
H2738       H  0.15289234  0.26589534  0.35233313     0.08800
H2739       H  0.15230665  0.30482917  0.35320494     0.12100
H2740       H  0.09589673  0.30438454  0.39475946     0.14000
C2741       C  0.93931668  0.12909476  0.36173839    -0.01600
C2742       C  0.95114366  0.13122840  0.34231192    -0.09600
C2743       C  0.97388266  0.12945305  0.34221044    -0.18400
C2744       C  0.98565648  0.12538887  0.36165177     0.04000
C2745       C  0.97354966  0.12315559  0.38129843     0.18200
C2746       C  0.95070625  0.12503350  0.38116349    -0.19800
C2747       C  0.98431050  0.11919422  0.40103639    -0.21100
C2748       C  0.00692180  0.11789608  0.40183171    -0.19600
C2749       C  0.01937626  0.12040463  0.38289138     0.19600
C2750       C  0.00895482  0.12380579  0.36243818     0.01700
C2751       C  0.02237845  0.12570380  0.34378205    -0.14400
C2752       C  0.04512390  0.12510914  0.34550745    -0.12100
C2753       C  0.05533392  0.12258123  0.36582178     0.01200
C2754       C  0.04225397  0.11985509  0.38438324    -0.24300
H2755       H  0.94279258  0.13439188  0.32708109     0.09200
H2756       H  0.98179505  0.13148544  0.32661744     0.12800
H2757       H  0.94176056  0.12323165  0.39630979     0.11500
H2758       H  0.97517443  0.11734167  0.41604314     0.12700
H2759       H  0.01474861  0.11511148  0.41744550     0.11700
H2760       H  0.01579323  0.12784479  0.32758364     0.08800
H2761       H  0.05476490  0.12697813  0.33085566     0.12100
H2762       H  0.04989472  0.11757130  0.40018507     0.14000
C2763       C  0.12474652  0.05743601  0.36857530    -0.01600
C2764       C  0.12720120  0.04680616  0.34850855    -0.09600
C2765       C  0.12738129  0.02407687  0.34727751    -0.18400
C2766       C  0.12503614  0.01110832  0.36621273     0.04000
C2767       C  0.12276766  0.02198121  0.38655148     0.18200
C2768       C  0.12268051  0.04485605  0.38754654    -0.19800
C2769       C  0.12044741  0.00997888  0.40581090    -0.21100
C2770       C  0.12018229  0.98733463  0.40534607    -0.19600
C2771       C  0.12222492  0.97610351  0.38560666     0.19600
C2772       C  0.12473192  0.98780016  0.36573308     0.01700
C2773       C  0.12669328  0.97562629  0.34626871    -0.14400
C2774       C  0.12608320  0.95289088  0.34654942    -0.12100
C2775       C  0.12356960  0.94141944  0.36615600     0.01200
C2776       C  0.12170372  0.95318934  0.38565031    -0.24300
H2777       H  0.12891387  0.05608920  0.33358551     0.09200
H2778       H  0.12929572  0.01720134  0.33124835     0.12800
H2779       H  0.12081758  0.05286921  0.40318667     0.11500
H2780       H  0.11873989  0.01817395  0.42136842     0.12700
H2781       H  0.11828724  0.97853639  0.42055230     0.11700
H2782       H  0.12867395  0.98314275  0.33053189     0.08800
H2783       H  0.12764734  0.94425825  0.33123014     0.12100
H2784       H  0.11975483  0.94452153  0.40092986     0.14000
loop_ 
_geom_bond_atom_site_label_1 
_geom_bond_atom_site_label_2 
_geom_bond_distance 
_geom_bond_site_symmetry_2 
_ccdc_geom_bond_type 
O1           Cu9   2.022       .  S
O1           C11   1.280       .  A
O2           Cu9   2.016       .  S
O2           C12   1.279       .  A
O3           Cu9   2.005       .  S
O3           C13   1.278       .  A
O4           Cu9   1.997       .  S
O4           C14   1.277       .  A
O5          Cu10   2.024       .  S
O5           C14   1.279       .  A
O6          Cu10   2.011       .  S
O6           C13   1.279       .  A
O7          Cu10   2.023       .  S
O7           C12   1.279       .  A
O8          Cu10   2.013       .  S
O8           C11   1.279       .  A
Cu9         Cu10   2.371       .  S
C11        C2753   1.488       .  S
C12        C2697   1.480       .  S
C13        C2763   1.482       .  S
C14        C2719   1.474       .  S
O15         Cu23   2.009       .  S
O15          C25   1.278       .  A
O16         Cu23   1.999       .  S
O16          C26   1.277       .  A
O17         Cu23   2.018       .  S
O17          C27   1.279       .  A
O18         Cu23   2.026       .  S
O18          C28   1.280       .  A
O19         Cu24   1.999       .  S
O19          C28   1.277       .  A
O20         Cu24   2.008       .  S
O20          C27   1.277       .  A
O21         Cu24   2.020       .  S
O21          C26   1.280       .  A
O22         Cu24   2.013       .  S
O22          C25   1.278       .  A
Cu23        Cu24   2.371       .  S
C25        C2631   1.476       .  S
C26        C2775   1.483       .  S
C27        C2653   1.476       .  S
C28        C2687   1.485       .  S
O29         Cu37   2.007       .  S
O29          C39   1.277       .  A
O30         Cu37   2.013       .  S
O30          C40   1.279       .  A
O31         Cu37   2.018       .  S
O31          C41   1.279       .  A
O32         Cu37   2.015       .  S
O32          C42   1.279       .  A
O33         Cu38   2.009       .  S
O33          C42   1.278       .  A
O34         Cu38   1.993       .  S
O34          C41   1.276       .  A
O35         Cu38   2.003       .  S
O35          C40   1.278       .  A
O36         Cu38   2.010       .  S
O36          C39   1.278       .  A
Cu37        Cu38   2.372       .  S
C39        C2565   1.471       .  S
C40        C2609   1.482       .  S
C41        C2587   1.471       .  S
C42        C2741   1.484       .  S
O43         Cu51   2.006       .  S
O43          C53   1.278       .  A
O44         Cu51   2.020       .  S
O44          C54   1.279       .  A
O45         Cu51   2.014       .  S
O45          C55   1.278       .  A
O46         Cu51   2.006       .  S
O46          C56   1.278       .  A
O47         Cu52   2.019       .  S
O47          C56   1.280       .  A
O48         Cu52   2.010       .  S
O48          C55   1.278       .  A
O49         Cu52   2.004       .  S
O49          C54   1.278       .  A
O50         Cu52   2.007       .  S
O50          C53   1.277       .  A
Cu51        Cu52   2.371       .  S
C53        C2521   1.469       .  S
C54        C2675   1.485       .  S
C55        C2543   1.476       .  S
C56        C2621   1.484       .  S
O57         Cu65   2.019       .  S
O57          C67   1.279       .  A
O58         Cu65   2.010       .  S
O58          C68   1.279       .  A
O59         Cu65   2.016       .  S
O59          C69   1.279       .  A
O60         Cu65   2.008       .  S
O60          C70   1.279       .  A
O61         Cu66   2.011       .  S
O61          C70   1.278       .  A
O62         Cu66   2.008       .  S
O62          C69   1.278       .  A
O63         Cu66   2.000       .  S
O63          C68   1.277       .  A
O64         Cu66   1.998       .  S
O64          C67   1.277       .  A
Cu65        Cu66   2.372       .  S
C67        C2731   1.476       .  S
C68        C2477   1.479       .  S
C69        C2455   1.479       .  S
C70        C2499   1.483       .  S
O71         Cu79   1.999       .  S
O71          C81   1.277       .  A
O72         Cu79   2.007       .  S
O72          C82   1.278       .  A
O73         Cu79   2.017       .  S
O73          C83   1.279       .  A
O74         Cu79   2.010       .  S
O74          C84   1.278       .  A
O75         Cu80   2.007       .  S
O75          C84   1.277       .  A
O76         Cu80   1.997       .  S
O76          C83   1.277       .  A
O77         Cu80   2.008       .  S
O77          C82   1.278       .  A
O78         Cu80   2.018       .  S
O78          C81   1.279       .  A
Cu79        Cu80   2.372       .  S
C81        C2511   1.482       .  S
C82        C2411   1.474       .  S
C83        C2445   1.481       .  S
C84        C2401   1.469       .  S
O85         Cu93   2.001       .  S
O85          C95   1.277       .  A
O86         Cu93   2.006       .  S
O86          C96   1.278       .  A
O87         Cu93   2.005       .  S
O87          C97   1.278       .  A
O88         Cu93   2.009       .  S
O88          C98   1.278       .  A
O89         Cu94   2.008       .  S
O89          C98   1.277       .  A
O90         Cu94   2.015       .  S
O90          C97   1.279       .  A
O91         Cu94   2.008       .  S
O91          C96   1.278       .  A
O92         Cu94   2.015       .  S
O92          C95   1.279       .  A
Cu93        Cu94   2.371       .  S
C95        C2643   1.472       .  S
C96        C2489   1.480       .  S
C97        C2379   1.483       .  S
C98        C2357   1.469       .  S
O99        Cu107   2.021       .  S
O99         C109   1.280       .  A
O100       Cu107   2.014       .  S
O100        C110   1.279       .  A
O101       Cu107   2.007       .  S
O101        C111   1.277       .  A
O102       Cu107   2.016       .  S
O102        C112   1.279       .  A
O103       Cu108   2.008       .  S
O103        C112   1.279       .  A
O104       Cu108   2.013       .  S
O104        C111   1.279       .  A
O105       Cu108   2.003       .  S
O105        C110   1.276       .  A
O106       Cu108   1.992       .  S
O106        C109   1.276       .  A
Cu107      Cu108   2.373       .  S
C109       C2433   1.481       .  S
C110       C2323   1.472       .  S
C111       C2301   1.475       .  S
C112       C2367   1.484       .  S
O113       Cu121   1.997       .  S
O113        C123   1.276       .  A
O114       Cu121   2.007       .  S
O114        C124   1.279       .  A
O115       Cu121   2.020       .  S
O115        C125   1.280       .  A
O116       Cu121   2.008       .  S
O116        C126   1.277       .  A
O117       Cu122   2.007       .  S
O117        C126   1.278       .  A
O118       Cu122   2.005       .  S
O118        C125   1.278       .  A
O119       Cu122   2.009       .  S
O119        C124   1.278       .  A
O120       Cu122   2.009       .  S
O120        C123   1.278       .  A
Cu121      Cu122   2.373       .  S
C123       C2599   1.468       .  S
C124       C2257   1.482       .  S
C125       C2291   1.485       .  S
C126       C2235   1.470       .  S
O127       Cu135   2.019       .  S
O127        C137   1.279       .  A
O128       Cu135   2.014       .  S
O128        C138   1.279       .  A
O129       Cu135   2.002       .  S
O129        C139   1.278       .  A
O130       Cu135   2.007       .  S
O130        C140   1.277       .  A
O131       Cu136   2.022       .  S
O131        C140   1.279       .  A
O132       Cu136   2.028       .  S
O132        C139   1.280       .  A
O133       Cu136   2.007       .  S
O133        C138   1.278       .  A
O134       Cu136   1.994       .  S
O134        C137   1.276       .  A
Cu135      Cu136   2.372       .  S
C137       C2169   1.474       .  S
C138       C2213   1.484       .  S
C139       C2279   1.487       .  S
C140       C2191   1.475       .  S
O141       Cu149   2.016       .  S
O141        C151   1.279       .  A
O142       Cu149   2.010       .  S
O142        C152   1.278       .  A
O143       Cu149   2.004       .  S
O143        C153   1.277       .  A
O144       Cu149   2.009       .  S
O144        C154   1.279       .  A
O145       Cu150   2.018       .  S
O145        C154   1.279       .  A
O146       Cu150   2.030       .  S
O146        C153   1.280       .  A
O147       Cu150   2.014       .  S
O147        C152   1.278       .  A
O148       Cu150   2.006       .  S
O148        C151   1.278       .  A
Cu149      Cu150   2.371       .  S
C151       C2147   1.483       .  S
C152       C2125   1.476       .  S
C153       C2709   1.480       .  S
C154       C2269   1.485       .  S
O155       Cu163   2.011       .  S
O155        C165   1.279       .  A
O156       Cu163   2.008       .  S
O156        C166   1.279       .  A
O157       Cu163   2.010       .  S
O157        C167   1.278       .  A
O158       Cu163   2.014       .  S
O158        C168   1.278       .  A
O159       Cu164   2.003       .  S
O159        C168   1.278       .  A
O160       Cu164   2.009       .  S
O160        C167   1.279       .  A
O161       Cu164   2.015       .  S
O161        C166   1.279       .  A
O162       Cu164   2.009       .  S
O162        C165   1.278       .  A
Cu163      Cu164   2.371       .  S
C165       C2103   1.479       .  S
C166       C2225   1.484       .  S
C167       C2159   1.483       .  S
C168       C2081   1.476       .  S
O169       Cu177   1.999       .  S
O169        C179   1.277       .  A
O170       Cu177   1.993       .  S
O170        C180   1.277       .  A
O171       Cu177   2.006       .  S
O171        C181   1.278       .  A
O172       Cu177   2.015       .  S
O172        C182   1.279       .  A
O173       Cu178   2.006       .  S
O173        C182   1.277       .  A
O174       Cu178   2.011       .  S
O174        C181   1.279       .  A
O175       Cu178   2.022       .  S
O175        C180   1.280       .  A
O176       Cu178   2.011       .  S
O176        C179   1.278       .  A
Cu177      Cu178   2.373       .  S
C179       C2015   1.469       .  S
C180       C2071   1.482       .  S
C181       C2049   1.481       .  S
C182       C2555   1.474       .  S
O183       Cu191   2.011       .  S
O183        C193   1.278       .  A
O184       Cu191   1.999       .  S
O184        C194   1.278       .  A
O185       Cu191   2.019       .  S
O185        C195   1.279       .  A
O186       Cu191   2.011       .  S
O186        C196   1.278       .  A
O187       Cu192   2.004       .  S
O187        C196   1.278       .  A
O188       Cu192   1.996       .  S
O188        C195   1.276       .  A
O189       Cu192   2.018       .  S
O189        C194   1.279       .  A
O190       Cu192   2.016       .  S
O190        C193   1.278       .  A
Cu191      Cu192   2.373       .  S
C193       C1971   1.476       .  S
C194       C2059   1.482       .  S
C195       C1949   1.472       .  S
C196       C2005   1.482       .  S
O197       Cu205   2.006       .  S
O197        C207   1.278       .  A
O198       Cu205   2.012       .  S
O198        C208   1.279       .  A
O199       Cu205   2.000       .  S
O199        C209   1.277       .  A
O200       Cu205   2.006       .  S
O200        C210   1.277       .  A
O201       Cu206   2.001       .  S
O201        C210   1.277       .  A
O202       Cu206   2.006       .  S
O202        C209   1.278       .  A
O203       Cu206   1.998       .  S
O203        C208   1.276       .  A
O204       Cu206   2.005       .  S
O204        C207   1.278       .  A
Cu205      Cu206   2.374       .  S
C207       C2037   1.480       .  S
C208       C2577   1.471       .  S
C209       C1927   1.478       .  S
C210       C1917   1.467       .  S
O211       Cu219   1.998       .  S
O211        C221   1.277       .  A
O212       Cu219   1.998       .  S
O212        C222   1.277       .  A
O213       Cu219   2.007       .  S
O213        C223   1.279       .  A
O214       Cu219   2.014       .  S
O214        C224   1.279       .  A
O215       Cu220   2.008       .  S
O215        C224   1.278       .  A
O216       Cu220   2.013       .  S
O216        C223   1.278       .  A
O217       Cu220   2.018       .  S
O217        C222   1.280       .  A
O218       Cu220   2.012       .  S
O218        C221   1.279       .  A
Cu219      Cu220   2.371       .  S
C221       C1939   1.479       .  S
C222       C1861   1.478       .  S
C223       C1993   1.483       .  S
C224       C1883   1.480       .  S
O225       Cu233   2.017       .  S
O225        C235   1.279       .  A
O226       Cu233   2.010       .  S
O226        C236   1.278       .  A
O227       Cu233   1.999       .  S
O227        C237   1.277       .  A
O228       Cu233   2.009       .  S
O228        C238   1.278       .  A
O229       Cu234   2.013       .  S
O229        C238   1.279       .  A
O230       Cu234   2.020       .  S
O230        C237   1.279       .  A
O231       Cu234   2.011       .  S
O231        C236   1.279       .  A
O232       Cu234   2.006       .  S
O232        C235   1.277       .  A
Cu233      Cu234   2.371       .  S
C235       C2665   1.476       .  S
C236       C1829   1.483       .  S
C237       C1807   1.475       .  S
C238       C1839   1.483       .  S
O239       Cu247   2.019       .  S
O239        C249   1.280       .  A
O240       Cu247   2.011       .  S
O240        C250   1.278       .  A
O241       Cu247   2.007       .  S
O241        C251   1.278       .  A
O242       Cu247   2.019       .  S
O242        C252   1.279       .  A
O243       Cu248   2.005       .  S
O243        C252   1.278       .  A
O244       Cu248   2.012       .  S
O244        C251   1.278       .  A
O245       Cu248   2.007       .  S
O245        C250   1.278       .  A
O246       Cu248   2.001       .  S
O246        C249   1.277       .  A
Cu247      Cu248   2.372       .  S
C249       C1851   1.483       .  S
C250       C1751   1.473       .  S
C251       C1729   1.476       .  S
C252       C1773   1.484       .  S
O253       Cu261   2.005       .  S
O253        C263   1.278       .  A
O254       Cu261   2.009       .  S
O254        C264   1.278       .  A
O255       Cu261   2.005       .  S
O255        C265   1.278       .  A
O256       Cu261   2.013       .  S
O256        C266   1.280       .  A
O257       Cu262   2.004       .  S
O257        C266   1.277       .  A
O258       Cu262   2.006       .  S
O258        C265   1.278       .  A
O259       Cu262   2.003       .  S
O259        C264   1.278       .  A
O260       Cu262   2.015       .  S
O260        C263   1.280       .  A
Cu261      Cu262   2.372       .  S
C263       C1707   1.483       .  S
C264       C1663   1.472       .  S
C265       C1685   1.473       .  S
C266       C1785   1.481       .  S
O267       Cu275   2.011       .  S
O267        C277   1.278       .  A
O268       Cu275   2.001       .  S
O268        C278   1.277       .  A
O269       Cu275   2.015       .  S
O269        C279   1.280       .  A
O270       Cu275   2.010       .  S
O270        C280   1.278       .  A
O271       Cu276   2.005       .  S
O271        C280   1.278       .  A
O272       Cu276   2.000       .  S
O272        C279   1.277       .  A
O273       Cu276   2.022       .  S
O273        C278   1.280       .  A
O274       Cu276   2.019       .  S
O274        C277   1.279       .  A
Cu275      Cu276   2.371       .  S
C277       C1653   1.478       .  S
C278       C1719   1.484       .  S
C279       C1817   1.482       .  S
C280       C2533   1.474       .  S
O281       Cu289   2.014       .  S
O281        C291   1.278       .  A
O282       Cu289   2.017       .  S
O282        C292   1.279       .  A
O283       Cu289   2.007       .  S
O283        C293   1.277       .  A
O284       Cu289   2.014       .  S
O284        C294   1.279       .  A
O285       Cu290   2.011       .  S
O285        C294   1.279       .  A
O286       Cu290   2.017       .  S
O286        C293   1.279       .  A
O287       Cu290   1.996       .  S
O287        C292   1.277       .  A
O288       Cu290   2.008       .  S
O288        C291   1.277       .  A
Cu289      Cu290   2.373       .  S
C291       C1741   1.471       .  S
C292       C1597   1.480       .  S
C293       C2335   1.475       .  S
C294       C1619   1.485       .  S
O295       Cu303   2.001       .  S
O295        C305   1.277       .  A
O296       Cu303   2.008       .  S
O296        C306   1.277       .  A
O297       Cu303   2.016       .  S
O297        C307   1.279       .  A
O298       Cu303   2.006       .  S
O298        C308   1.278       .  A
O299       Cu304   2.015       .  S
O299        C308   1.279       .  A
O300       Cu304   2.010       .  S
O300        C307   1.278       .  A
O301       Cu304   2.006       .  S
O301        C306   1.277       .  A
O302       Cu304   2.010       .  S
O302        C305   1.279       .  A
Cu303      Cu304   2.372       .  S
C305       C1575   1.480       .  S
C306       C2115   1.467       .  S
C307       C1631   1.485       .  S
C308       C2389   1.477       .  S
O309       Cu317   2.001       .  S
O309        C319   1.277       .  A
O310       Cu317   2.009       .  S
O310        C320   1.279       .  A
O311       Cu317   2.011       .  S
O311        C321   1.277       .  A
O312       Cu317   2.019       .  S
O312        C322   1.280       .  A
O313       Cu318   2.000       .  S
O313        C322   1.277       .  A
O314       Cu318   2.008       .  S
O314        C321   1.277       .  A
O315       Cu318   1.997       .  S
O315        C320   1.277       .  A
O316       Cu318   2.008       .  S
O316        C319   1.277       .  A
Cu317      Cu318   2.375       .  S
C319       C2181   1.466       .  S
C320       C1587   1.479       .  S
C321       C1895   1.468       .  S
C322       C1553   1.482       .  S
O323       Cu331   2.012       .  S
O323        C333   1.278       .  A
O324       Cu331   2.003       .  S
O324        C334   1.278       .  A
O325       Cu331   2.012       .  S
O325        C335   1.278       .  A
O326       Cu331   2.010       .  S
O326        C336   1.278       .  A
O327       Cu332   2.007       .  S
O327        C336   1.278       .  A
O328       Cu332   1.999       .  S
O328        C335   1.277       .  A
O329       Cu332   2.005       .  S
O329        C334   1.278       .  A
O330       Cu332   1.999       .  S
O330        C333   1.276       .  A
Cu331      Cu332   2.374       .  S
C333       C1697   1.468       .  S
C334       C1609   1.478       .  S
C335       C1961   1.469       .  S
C336       C1565   1.482       .  S
O337       Cu345   2.007       .  S
O337        C347   1.277       .  A
O338       Cu345   2.011       .  S
O338        C348   1.279       .  A
O339       Cu345   2.011       .  S
O339        C349   1.278       .  A
O340       Cu345   2.001       .  S
O340        C350   1.278       .  A
O341       Cu346   2.016       .  S
O341        C350   1.279       .  A
O342       Cu346   2.010       .  S
O342        C349   1.278       .  A
O343       Cu346   2.003       .  S
O343        C348   1.278       .  A
O344       Cu346   2.017       .  S
O344        C347   1.278       .  A
Cu345      Cu346   2.371       .  S
C347       C2137   1.473       .  S
C348       C1531   1.480       .  S
C349       C1487   1.471       .  S
C350       C1521   1.482       .  S
O351       Cu359   2.012       .  S
O351        C361   1.278       .  A
O352       Cu359   2.009       .  S
O352        C362   1.278       .  A
O353       Cu359   2.005       .  S
O353        C363   1.278       .  A
O354       Cu359   1.996       .  S
O354        C364   1.276       .  A
O355       Cu360   2.017       .  S
O355        C364   1.278       .  A
O356       Cu360   2.005       .  S
O356        C363   1.278       .  A
O357       Cu360   2.012       .  S
O357        C362   1.279       .  A
O358       Cu360   1.999       .  S
O358        C361   1.276       .  A
Cu359      Cu360   2.373       .  S
C361       C1443   1.469       .  S
C362       C1465   1.483       .  S
C363       C1543   1.478       .  S
C364       C2093   1.468       .  S
O365       Cu373   2.011       .  S
O365        C375   1.279       .  A
O366       Cu373   2.019       .  S
O366        C376   1.279       .  A
O367       Cu373   2.010       .  S
O367        C377   1.278       .  A
O368       Cu373   2.016       .  S
O368        C378   1.279       .  A
O369       Cu374   2.001       .  S
O369        C378   1.278       .  A
O370       Cu374   2.010       .  S
O370        C377   1.277       .  A
O371       Cu374   2.000       .  S
O371        C376   1.277       .  A
O372       Cu374   2.009       .  S
O372        C375   1.278       .  A
Cu373      Cu374   2.371       .  S
C375       C1477   1.482       .  S
C376       C1399   1.474       .  S
C377       C1763   1.473       .  S
C378       C1421   1.482       .  S
O379       Cu387   2.000       .  S
O379        C389   1.276       .  A
O380       Cu387   2.006       .  S
O380        C390   1.277       .  A
O381       Cu387   2.010       .  S
O381        C391   1.279       .  A
O382       Cu387   2.020       .  S
O382        C392   1.279       .  A
O383       Cu388   1.998       .  S
O383        C392   1.276       .  A
O384       Cu388   2.010       .  S
O384        C391   1.278       .  A
O385       Cu388   2.011       .  S
O385        C390   1.279       .  A
O386       Cu388   2.021       .  S
O386        C389   1.279       .  A
Cu387      Cu388   2.371       .  S
C389       C1795   1.473       .  S
C390       C1433   1.482       .  S
C391       C1509   1.483       .  S
C392       C1377   1.473       .  S
O393       Cu401   2.011       .  S
O393        C403   1.278       .  A
O394       Cu401   2.007       .  S
O394        C404   1.278       .  A
O395       Cu401   2.014       .  S
O395        C405   1.279       .  A
O396       Cu401   2.020       .  S
O396        C406   1.280       .  A
O397       Cu402   1.999       .  S
O397        C406   1.277       .  A
O398       Cu402   2.004       .  S
O398        C405   1.277       .  A
O399       Cu402   2.017       .  S
O399        C404   1.279       .  A
O400       Cu402   2.005       .  S
O400        C403   1.278       .  A
Cu401      Cu402   2.371       .  S
C403       C1905   1.474       .  S
C404       C1367   1.484       .  S
C405       C1311   1.473       .  S
C406       C1333   1.483       .  S
O407       Cu415   2.015       .  S
O407        C417   1.278       .  A
O408       Cu415   2.005       .  S
O408        C418   1.278       .  A
O409       Cu415   2.015       .  S
O409        C419   1.279       .  A
O410       Cu415   2.009       .  S
O410        C420   1.278       .  A
O411       Cu416   2.013       .  S
O411        C420   1.278       .  A
O412       Cu416   2.003       .  S
O412        C419   1.278       .  A
O413       Cu416   2.019       .  S
O413        C418   1.280       .  A
O414       Cu416   2.010       .  S
O414        C417   1.278       .  A
Cu415      Cu416   2.371       .  S
C417       C1873   1.472       .  S
C418       C1355   1.485       .  S
C419       C1289   1.481       .  S
C420       C1267   1.475       .  S
O421       Cu429   2.009       .  S
O421        C431   1.277       .  A
O422       Cu429   2.015       .  S
O422        C432   1.279       .  A
O423       Cu429   2.008       .  S
O423        C433   1.278       .  A
O424       Cu429   2.021       .  S
O424        C434   1.279       .  A
O425       Cu430   2.001       .  S
O425        C434   1.277       .  A
O426       Cu430   2.010       .  S
O426        C433   1.279       .  A
O427       Cu430   2.009       .  S
O427        C432   1.278       .  A
O428       Cu430   2.016       .  S
O428        C431   1.278       .  A
Cu429      Cu430   2.371       .  S
C431       C2467   1.471       .  S
C432       C1245   1.484       .  S
C433       C1345   1.482       .  S
C434       C1235   1.474       .  S
O435       Cu443   2.011       .  S
O435        C445   1.278       .  A
O436       Cu443   2.017       .  S
O436        C446   1.279       .  A
O437       Cu443   2.006       .  S
O437        C447   1.278       .  A
O438       Cu443   2.011       .  S
O438        C448   1.278       .  A
O439       Cu444   2.005       .  S
O439        C448   1.277       .  A
O440       Cu444   2.016       .  S
O440        C447   1.280       .  A
O441       Cu444   1.997       .  S
O441        C446   1.277       .  A
O442       Cu444   2.007       .  S
O442        C445   1.277       .  A
Cu443      Cu444   2.372       .  S
C445       C1213   1.471       .  S
C446       C1301   1.480       .  S
C447       C1257   1.484       .  S
C448       C2423   1.471       .  S
O449       Cu457   2.007       .  S
O449        C459   1.277       .  A
O450       Cu457   2.009       .  S
O450        C460   1.279       .  A
O451       Cu457   2.012       .  S
O451        C461   1.279       .  A
O452       Cu457   2.005       .  S
O452        C462   1.277       .  A
O453       Cu458   2.015       .  S
O453        C462   1.278       .  A
O454       Cu458   2.008       .  S
O454        C461   1.278       .  A
O455       Cu458   2.015       .  S
O455        C460   1.279       .  A
O456       Cu458   2.023       .  S
O456        C459   1.280       .  A
Cu457      Cu458   2.372       .  S
C459       C1641   1.478       .  S
C460       C1191   1.484       .  S
C461       C1157   1.483       .  S
C462       C1135   1.474       .  S
O463       Cu471   2.012       .  S
O463        C473   1.278       .  A
O464       Cu471   2.003       .  S
O464        C474   1.277       .  A
O465       Cu471   2.008       .  S
O465        C475   1.279       .  A
O466       Cu471   2.012       .  S
O466        C476   1.278       .  A
O467       Cu472   2.001       .  S
O467        C476   1.277       .  A
O468       Cu472   2.009       .  S
O468        C475   1.278       .  A
O469       Cu472   2.015       .  S
O469        C474   1.280       .  A
O470       Cu472   2.010       .  S
O470        C473   1.278       .  A
Cu471      Cu472   2.373       .  S
C473       C1091   1.476       .  S
C474       C1125   1.482       .  S
C475       C1179   1.482       .  S
C476       C1675   1.469       .  S
O477       Cu485   2.006       .  S
O477        C487   1.277       .  A
O478       Cu485   1.998       .  S
O478        C488   1.277       .  A
O479       Cu485   2.019       .  S
O479        C489   1.280       .  A
O480       Cu485   2.017       .  S
O480        C490   1.279       .  A
O481       Cu486   2.009       .  S
O481        C490   1.278       .  A
O482       Cu486   1.995       .  S
O482        C489   1.277       .  A
O483       Cu486   2.018       .  S
O483        C488   1.280       .  A
O484       Cu486   2.007       .  S
O484        C487   1.278       .  A
Cu485      Cu486   2.372       .  S
C487       C1059   1.471       .  S
C488       C1113   1.482       .  S
C489       C1081   1.479       .  S
C490       C2203   1.478       .  S
O491       Cu499   2.001       .  S
O491        C501   1.276       .  A
O492       Cu499   2.010       .  S
O492        C502   1.279       .  A
O493       Cu499   2.013       .  S
O493        C503   1.279       .  A
O494       Cu499   2.004       .  S
O494        C504   1.277       .  A
O495       Cu500   2.004       .  S
O495        C504   1.277       .  A
O496       Cu500   1.998       .  S
O496        C503   1.277       .  A
O497       Cu500   2.007       .  S
O497        C502   1.278       .  A
O498       Cu500   2.011       .  S
O498        C501   1.279       .  A
Cu499      Cu500   2.374       .  S
C501       C1025   1.470       .  S
C502       C1169   1.482       .  S
C503       C1069   1.479       .  S
C504       C2247   1.469       .  S
O505       Cu513   2.010       .  S
O505        C515   1.279       .  A
O506       Cu513   1.999       .  S
O506        C516   1.277       .  A
O507       Cu513   2.010       .  S
O507        C517   1.278       .  A
O508       Cu513   2.012       .  S
O508        C518   1.278       .  A
O509       Cu514   1.997       .  S
O509        C518   1.277       .  A
O510       Cu514   2.003       .  S
O510        C517   1.277       .  A
O511       Cu514   2.016       .  S
O511        C516   1.279       .  A
O512       Cu514   2.010       .  S
O512        C515   1.278       .  A
Cu513      Cu514   2.373       .  S
C515        C981   1.483       .  S
C516        C971   1.476       .  S
C517       C2345   1.473       .  S
C518       C1015   1.477       .  S
O519       Cu527   2.013       .  S
O519        C529   1.278       .  A
O520       Cu527   2.010       .  S
O520        C530   1.278       .  A
O521       Cu527   2.010       .  S
O521        C531   1.278       .  A
O522       Cu527   2.007       .  S
O522        C532   1.278       .  A
O523       Cu528   2.013       .  S
O523        C532   1.279       .  A
O524       Cu528   2.005       .  S
O524        C531   1.278       .  A
O525       Cu528   2.009       .  S
O525        C530   1.277       .  A
O526       Cu528   2.001       .  S
O526        C529   1.278       .  A
Cu527      Cu528   2.371       .  S
C529       C1003   1.479       .  S
C530       C2313   1.474       .  S
C531        C927   1.475       .  S
C532        C937   1.482       .  S
O533       Cu541   2.006       .  S
O533        C543   1.278       .  A
O534       Cu541   2.013       .  S
O534        C544   1.278       .  A
O535       Cu541   2.016       .  S
O535        C545   1.279       .  A
O536       Cu541   2.017       .  S
O536        C546   1.279       .  A
O537       Cu542   2.003       .  S
O537        C546   1.278       .  A
O538       Cu542   2.012       .  S
O538        C545   1.278       .  A
O539       Cu542   2.007       .  S
O539        C544   1.278       .  A
O540       Cu542   2.018       .  S
O540        C543   1.279       .  A
Cu541      Cu542   2.370       .  S
C543        C949   1.483       .  S
C544        C871   1.474       .  S
C545       C1983   1.477       .  S
C546        C893   1.483       .  S
O547       Cu555   1.999       .  S
O547        C557   1.277       .  A
O548       Cu555   2.008       .  S
O548        C558   1.278       .  A
O549       Cu555   2.005       .  S
O549        C559   1.278       .  A
O550       Cu555   2.013       .  S
O550        C560   1.278       .  A
O551       Cu556   2.010       .  S
O551        C560   1.278       .  A
O552       Cu556   2.018       .  S
O552        C559   1.279       .  A
O553       Cu556   2.007       .  S
O553        C558   1.278       .  A
O554       Cu556   2.014       .  S
O554        C557   1.278       .  A
Cu555      Cu556   2.371       .  S
C557       C2027   1.474       .  S
C558        C905   1.482       .  S
C559        C993   1.484       .  S
C560        C849   1.474       .  S
O561       Cu569   2.018       .  S
O561        C571   1.279       .  A
O562       Cu569   2.025       .  S
O562        C572   1.280       .  A
O563       Cu569   2.009       .  S
O563        C573   1.277       .  A
O564       Cu569   2.002       .  S
O564        C574   1.278       .  A
O565       Cu570   2.020       .  S
O565        C574   1.279       .  A
O566       Cu570   2.010       .  S
O566        C573   1.280       .  A
O567       Cu570   1.998       .  S
O567        C572   1.277       .  A
O568       Cu570   2.006       .  S
O568        C571   1.277       .  A
Cu569      Cu570   2.371       .  S
C571       C1499   1.478       .  S
C572        C827   1.484       .  S
C573        C805   1.483       .  S
C574       C1223   1.478       .  S
O575       Cu583   2.010       .  S
O575        C585   1.278       .  A
O576       Cu583   2.004       .  S
O576        C586   1.278       .  A
O577       Cu583   2.011       .  S
O577        C587   1.278       .  A
O578       Cu583   2.004       .  S
O578        C588   1.278       .  A
O579       Cu584   2.021       .  S
O579        C588   1.279       .  A
O580       Cu584   2.010       .  S
O580        C587   1.278       .  A
O581       Cu584   2.005       .  S
O581        C586   1.278       .  A
O582       Cu584   2.002       .  S
O582        C585   1.276       .  A
Cu583      Cu584   2.374       .  S
C585        C959   1.467       .  S
C586        C783   1.479       .  S
C587       C1389   1.474       .  S
C588        C839   1.485       .  S
O589       Cu597   2.012       .  S
O589        C599   1.278       .  A
O590       Cu597   2.014       .  S
O590        C600   1.279       .  A
O591       Cu597   2.002       .  S
O591        C601   1.278       .  A
O592       Cu597   2.012       .  S
O592        C602   1.279       .  A
O593       Cu598   2.010       .  S
O593        C602   1.278       .  A
O594       Cu598   2.012       .  S
O594        C601   1.279       .  A
O595       Cu598   2.004       .  S
O595        C600   1.278       .  A
O596       Cu598   2.011       .  S
O596        C599   1.278       .  A
Cu597      Cu598   2.371       .  S
C599       C1147   1.476       .  S
C600        C773   1.483       .  S
C601        C795   1.481       .  S
C602        C861   1.478       .  S
O603       Cu611   2.007       .  S
O603        C613   1.279       .  A
O604       Cu611   2.002       .  S
O604        C614   1.277       .  A
O605       Cu611   2.013       .  S
O605        C615   1.279       .  A
O606       Cu611   2.005       .  S
O606        C616   1.277       .  A
O607       Cu612   2.006       .  S
O607        C616   1.278       .  A
O608       Cu612   2.005       .  S
O608        C615   1.278       .  A
O609       Cu612   2.014       .  S
O609        C614   1.279       .  A
O610       Cu612   2.014       .  S
O610        C613   1.278       .  A
Cu611      Cu612   2.373       .  S
C613        C817   1.483       .  S
C614       C1323   1.471       .  S
C615        C761   1.483       .  S
C616       C1037   1.471       .  S
O617       Cu625   2.012       .  S
O617        C627   1.278       .  A
O618       Cu625   2.025       .  S
O618        C628   1.280       .  A
O619       Cu625   2.002       .  S
O619        C629   1.277       .  A
O620       Cu625   2.012       .  S
O620        C630   1.278       .  A
O621       Cu626   2.007       .  S
O621        C630   1.279       .  A
O622       Cu626   2.017       .  S
O622        C629   1.279       .  A
O623       Cu626   1.988       .  S
O623        C628   1.276       .  A
O624       Cu626   1.996       .  S
O624        C627   1.276       .  A
Cu625      Cu626   2.374       .  S
C627        C915   1.466       .  S
C628        C739   1.481       .  S
C629       C1411   1.473       .  S
C630        C729   1.482       .  S
O631       Cu639   2.013       .  S
O631        C641   1.278       .  A
O632       Cu639   2.006       .  S
O632        C642   1.278       .  A
O633       Cu639   2.003       .  S
O633        C643   1.278       .  A
O634       Cu639   2.011       .  S
O634        C644   1.278       .  A
O635       Cu640   2.004       .  S
O635        C644   1.277       .  A
O636       Cu640   2.014       .  S
O636        C643   1.278       .  A
O637       Cu640   2.013       .  S
O637        C642   1.279       .  A
O638       Cu640   2.008       .  S
O638        C641   1.278       .  A
Cu639      Cu640   2.373       .  S
C641       C1103   1.472       .  S
C642        C695   1.482       .  S
C643        C751   1.482       .  S
C644        C883   1.472       .  S
O645       Cu653   2.017       .  S
O645        C655   1.279       .  A
O646       Cu653   2.014       .  S
O646        C656   1.279       .  A
O647       Cu653   2.022       .  S
O647        C657   1.280       .  A
O648       Cu653   2.015       .  S
O648        C658   1.279       .  A
O649       Cu654   2.002       .  S
O649        C658   1.277       .  A
O650       Cu654   1.992       .  S
O650        C657   1.276       .  A
O651       Cu654   2.018       .  S
O651        C656   1.280       .  A
O652       Cu654   2.011       .  S
O652        C655   1.278       .  A
Cu653      Cu654   2.370       .  S
C655       C1279   1.477       .  S
C656        C685   1.487       .  S
C657        C707   1.481       .  S
C658       C1047   1.474       .  S
O659       Cu667   2.009       .  S
O659        C669   1.278       .  A
O660       Cu667   2.017       .  S
O660        C670   1.279       .  A
O661       Cu667   2.004       .  S
O661        C671   1.277       .  A
O662       Cu667   2.011       .  S
O662        C672   1.279       .  A
O663       Cu668   2.009       .  S
O663        C672   1.278       .  A
O664       Cu668   2.010       .  S
O664        C671   1.278       .  A
O665       Cu668   2.014       .  S
O665        C670   1.279       .  A
O666       Cu668   2.014       .  S
O666        C669   1.279       .  A
Cu667      Cu668   2.372       .  S
C669       C1201   1.477       .  S
C670        C673   1.487       .  S
C671       C1455   1.473       .  S
C672        C717   1.482       .  S
C673        C674   1.402       .  A
C673        C678   1.404       .  A
C674        C675   1.398       .  A
C674        H687   1.083       .  S
C675        C676   1.415       .  A
C675        H688   1.078       .  S
C676        C682   1.433       .  A
C676        C677   1.422       .  A
C677        C679   1.400       .  A
C677        C678   1.407       .  A
C678        H689   1.084       .  S
C679        C680   1.391       .  A
C679        H690   1.084       .  S
C680        C681   1.400       .  A
C680        H691   1.084       .  S
C681        C682   1.423       .  A
C681        C686   1.407       .  A
C682        C683   1.415       .  A
C683        C684   1.398       .  A
C683        H692   1.078       .  S
C684        C685   1.402       .  A
C684        H693   1.083       .  S
C685        C686   1.404       .  A
C686        H694   1.084       .  S
C695        C696   1.400       .  A
C695        C700   1.404       .  A
C696        C697   1.395       .  A
C696        H709   1.083       .  S
C697        C698   1.415       .  A
C697        H710   1.078       .  S
C698        C704   1.429       .  A
C698        C699   1.422       .  A
C699        C701   1.400       .  A
C699        C700   1.406       .  A
C700        H711   1.085       .  S
C701        C702   1.391       .  A
C701        H712   1.084       .  S
C702        C703   1.399       .  A
C702        H713   1.084       .  S
C703        C704   1.423       .  A
C703        C708   1.407       .  A
C704        C705   1.413       .  A
C705        C706   1.393       .  A
C705        H714   1.078       .  S
C706        C707   1.402       .  A
C706        H715   1.083       .  S
C707        C708   1.402       .  A
C708        H716   1.085       .  S
C717        C718   1.400       .  A
C717        C722   1.404       .  A
C718        C719   1.394       .  A
C718        H731   1.083       .  S
C719        C720   1.414       .  A
C719        H732   1.077       .  S
C720        C726   1.430       .  A
C720        C721   1.422       .  A
C721        C723   1.400       .  A
C721        C722   1.407       .  A
C722        H733   1.084       .  S
C723        C724   1.391       .  A
C723        H734   1.084       .  S
C724        C725   1.400       .  A
C724        H735   1.084       .  S
C725        C726   1.422       .  A
C725        C730   1.407       .  A
C726        C727   1.414       .  A
C727        C728   1.394       .  A
C727        H736   1.077       .  S
C728        C729   1.400       .  A
C728        H737   1.083       .  S
C729        C730   1.404       .  A
C730        H738   1.084       .  S
C739        C740   1.402       .  A
C739        C744   1.403       .  A
C740        C741   1.391       .  A
C740        H753   1.082       .  S
C741        C742   1.412       .  A
C741        H754   1.082       .  S
C742        C748   1.428       .  A
C742        C743   1.423       .  A
C743        C745   1.400       .  A
C743        C744   1.408       .  A
C744        H755   1.085       .  S
C745        C746   1.392       .  A
C745        H756   1.084       .  S
C746        C747   1.401       .  A
C746        H757   1.084       .  S
C747        C748   1.422       .  A
C747        C752   1.407       .  A
C748        C749   1.414       .  A
C749        C750   1.392       .  A
C749        H758   1.082       .  S
C750        C751   1.401       .  A
C750        H759   1.082       .  S
C751        C752   1.404       .  A
C752        H760   1.085       .  S
C761        C762   1.402       .  A
C761        C766   1.401       .  A
C762        C763   1.398       .  A
C762        H775   1.083       .  S
C763        C764   1.415       .  A
C763        H776   1.077       .  S
C764        C770   1.431       .  A
C764        C765   1.422       .  A
C765        C767   1.399       .  A
C765        C766   1.404       .  A
C766        H777   1.084       .  S
C767        C768   1.388       .  A
C767        H778   1.084       .  S
C768        C769   1.399       .  A
C768        H779   1.084       .  S
C769        C770   1.422       .  A
C769        C774   1.403       .  A
C770        C771   1.415       .  A
C771        C772   1.398       .  A
C771        H780   1.077       .  S
C772        C773   1.401       .  A
C772        H781   1.083       .  S
C773        C774   1.402       .  A
C774        H782   1.084       .  S
C783        C784   1.401       .  A
C783        C788   1.401       .  A
C784        C785   1.397       .  A
C784        H797   1.083       .  S
C785        C786   1.415       .  A
C785        H798   1.077       .  S
C786        C792   1.429       .  A
C786        C787   1.422       .  A
C787        C789   1.399       .  A
C787        C788   1.402       .  A
C788        H799   1.084       .  S
C789        C790   1.388       .  A
C789        H800   1.084       .  S
C790        C791   1.399       .  A
C790        H801   1.084       .  S
C791        C792   1.422       .  A
C791        C796   1.403       .  A
C792        C793   1.415       .  A
C793        C794   1.397       .  A
C793        H802   1.077       .  S
C794        C795   1.401       .  A
C794        H803   1.083       .  S
C795        C796   1.402       .  A
C796        H804   1.084       .  S
C805        C806   1.399       .  A
C805        C810   1.406       .  A
C806        C807   1.392       .  A
C806        H819   1.083       .  S
C807        C808   1.414       .  A
C807        H820   1.077       .  S
C808        C814   1.428       .  A
C808        C809   1.422       .  A
C809        C811   1.401       .  A
C809        C810   1.409       .  A
C810        H821   1.084       .  S
C811        C812   1.393       .  A
C811        H822   1.084       .  S
C812        C813   1.401       .  A
C812        H823   1.084       .  S
C813        C814   1.422       .  A
C813        C818   1.409       .  A
C814        C815   1.413       .  A
C815        C816   1.392       .  A
C815        H824   1.077       .  S
C816        C817   1.400       .  A
C816        H825   1.083       .  S
C817        C818   1.406       .  A
C818        H826   1.084       .  S
C827        C828   1.402       .  A
C827        C832   1.401       .  A
C828        C829   1.402       .  A
C828        H841   1.083       .  S
C829        C830   1.417       .  A
C829        H842   1.078       .  S
C830        C836   1.433       .  A
C830        C831   1.422       .  A
C831        C833   1.398       .  A
C831        C832   1.402       .  A
C832        H843   1.084       .  S
C833        C834   1.386       .  A
C833        H844   1.084       .  S
C834        C835   1.398       .  A
C834        H845   1.084       .  S
C835        C836   1.423       .  A
C835        C840   1.402       .  A
C836        C837   1.416       .  A
C837        C838   1.402       .  A
C837        H846   1.078       .  S
C838        C839   1.403       .  A
C838        H847   1.083       .  S
C839        C840   1.401       .  A
C840        H848   1.085       .  S
C849        C850   1.398       .  A
C849        C854   1.402       .  A
C850        C851   1.395       .  A
C850        H863   1.084       .  S
C851        C852   1.414       .  A
C851        H864   1.078       .  S
C852        C858   1.428       .  A
C852        C853   1.422       .  A
C853        C855   1.401       .  A
C853        C854   1.408       .  A
C854        H865   1.084       .  S
C855        C856   1.393       .  A
C855        H866   1.084       .  S
C856        C857   1.401       .  A
C856        H867   1.084       .  S
C857        C858   1.422       .  A
C857        C862   1.407       .  A
C858        C859   1.414       .  A
C859        C860   1.395       .  A
C859        H868   1.078       .  S
C860        C861   1.399       .  A
C860        H869   1.084       .  S
C861        C862   1.403       .  A
C862        H870   1.084       .  S
C871        C872   1.399       .  A
C871        C876   1.400       .  A
C872        C873   1.398       .  A
C872        H885   1.083       .  S
C873        C874   1.416       .  A
C873        H886   1.078       .  S
C874        C880   1.429       .  A
C874        C875   1.422       .  A
C875        C877   1.399       .  A
C875        C876   1.404       .  A
C876        H887   1.085       .  S
C877        C878   1.389       .  A
C877        H888   1.084       .  S
C878        C879   1.399       .  A
C878        H889   1.084       .  S
C879        C880   1.423       .  A
C879        C884   1.404       .  A
C880        C881   1.415       .  A
C881        C882   1.397       .  A
C881        H890   1.078       .  S
C882        C883   1.398       .  A
C882        H891   1.084       .  S
C883        C884   1.399       .  A
C884        H892   1.085       .  S
C893        C894   1.401       .  A
C893        C898   1.402       .  A
C894        C895   1.398       .  A
C894        H907   1.083       .  S
C895        C896   1.416       .  A
C895        H908   1.077       .  S
C896        C902   1.431   1_556  A
C896        C897   1.422       .  A
C897        C899   1.399       .  A
C897        C898   1.403       .  A
C898        H909   1.084       .  S
C899        C900   1.388   1_556  A
C899        H910   1.084       .  S
C900        C901   1.399       .  A
C900        H911   1.084       .  S
C901        C902   1.423       .  A
C901        C906   1.404       .  A
C902        C903   1.415       .  A
C903        C904   1.397       .  A
C903        H912   1.077       .  S
C904        C905   1.402       .  A
C904        H913   1.083       .  S
C905        C906   1.402       .  A
C906        H914   1.084       .  S
C915        C916   1.397       .  A
C915        C920   1.397       .  A
C916        C917   1.395       .  A
C916        H929   1.084       .  S
C917        C918   1.415       .  A
C917        H930   1.078       .  S
C918        C924   1.427       .  A
C918        C919   1.423       .  A
C919        C921   1.399       .  A
C919        C920   1.404       .  A
C920        H931   1.085       .  S
C921        C922   1.389       .  A
C921        H932   1.084       .  S
C922        C923   1.400       .  A
C922        H933   1.084       .  S
C923        C924   1.422       .  A
C923        C928   1.403       .  A
C924        C925   1.415       .  A
C925        C926   1.396       .  A
C925        H934   1.078       .  S
C926        C927   1.399       .  A
C926        H935   1.083       .  S
C927        C928   1.400       .  A
C928        H936   1.085       .  S
C937        C938   1.401       .  A
C937        C942   1.402       .  A
C938        C939   1.399       .  A
C938        H951   1.083       .  S
C939        C940   1.416       .  A
C939        H952   1.077       .  S
C940        C946   1.432   1_455  A
C940        C941   1.423       .  A
C941        C943   1.399       .  A
C941        C942   1.404       .  A
C942        H953   1.084       .  S
C943        C944   1.388   1_455  A
C943        H954   1.084       .  S
C944        C945   1.399       .  A
C944        H955   1.084       .  S
C945        C946   1.422       .  A
C945        C950   1.404       .  A
C946        C947   1.416       .  A
C947        C948   1.399       .  A
C947        H956   1.077       .  S
C948        C949   1.401       .  A
C948        H957   1.083       .  S
C949        C950   1.402       .  A
C950        H958   1.084       .  S
C959        C960   1.396       .  A
C959        C964   1.398       .  A
C960        C961   1.395       .  A
C960        H973   1.084       .  S
C961        C962   1.416       .  A
C961        H974   1.077       .  S
C962        C968   1.428       .  A
C962        C963   1.423       .  A
C963        C965   1.399       .  A
C963        C964   1.404       .  A
C964        H975   1.085       .  S
C965        C966   1.390       .  A
C965        H976   1.084       .  S
C966        C967   1.400       .  A
C966        H977   1.084       .  S
C967        C968   1.422       .  A
C967        C972   1.405       .  A
C968        C969   1.414       .  A
C969        C970   1.395       .  A
C969        H978   1.077       .  S
C970        C971   1.400       .  A
C970        H979   1.083       .  S
C971        C972   1.401       .  A
C972        H980   1.084       .  S
C981        C982   1.402       .  A
C981        C986   1.401       .  A
C982        C983   1.399       .  A
C982        H995   1.083       .  S
C983        C984   1.415       .  A
C983        H996   1.078       .  S
C984        C990   1.432   1_455  A
C984        C985   1.423       .  A
C985        C987   1.398       .  A
C985        C986   1.404       .  A
C986        H997   1.085       .  S
C987        C988   1.388   1_455  A
C987        H998   1.084       .  S
C988        C989   1.399       .  A
C988        H999   1.084       .  S
C989        C990   1.422       .  A
C989        C994   1.403       .  A
C990        C991   1.416       .  A
C991        C992   1.400       .  A
C991       H1000   1.078       .  S
C992        C993   1.402       .  A
C992       H1001   1.083       .  S
C993        C994   1.402       .  A
C994       H1002   1.085       .  S
C1003      C1004   1.400       .  A
C1003      C1008   1.403       .  A
C1004      C1005   1.393       .  A
C1004      H1017   1.083       .  S
C1005      C1006   1.414       .  A
C1005      H1018   1.076       .  S
C1006      C1012   1.428   1_556  A
C1006      C1007   1.422       .  A
C1007      C1009   1.400       .  A
C1007      C1008   1.406       .  A
C1008      H1019   1.084       .  S
C1009      C1010   1.391   1_556  A
C1009      H1020   1.084       .  S
C1010      C1011   1.400       .  A
C1010      H1021   1.084       .  S
C1011      C1012   1.422       .  A
C1011      C1016   1.406       .  A
C1012      C1013   1.414       .  A
C1013      C1014   1.393       .  A
C1013      H1022   1.076       .  S
C1014      C1015   1.399       .  A
C1014      H1023   1.083       .  S
C1015      C1016   1.402       .  A
C1016      H1024   1.084       .  S
C1025      C1026   1.396       .  A
C1025      C1030   1.401       .  A
C1026      C1027   1.393       .  A
C1026      H1039   1.084       .  S
C1027      C1028   1.414       .  A
C1027      H1040   1.077       .  S
C1028      C1034   1.426       .  A
C1028      C1029   1.422       .  A
C1029      C1031   1.401       .  A
C1029      C1030   1.406       .  A
C1030      H1041   1.085       .  S
C1031      C1032   1.392       .  A
C1031      H1042   1.084       .  S
C1032      C1033   1.400       .  A
C1032      H1043   1.084       .  S
C1033      C1034   1.422       .  A
C1033      C1038   1.406       .  A
C1034      C1035   1.414       .  A
C1035      C1036   1.392       .  A
C1035      H1044   1.077       .  S
C1036      C1037   1.397       .  A
C1036      H1045   1.084       .  S
C1037      C1038   1.401       .  A
C1038      H1046   1.084       .  S
C1047      C1048   1.400       .  A
C1047      C1052   1.399       .  A
C1048      C1049   1.396       .  A
C1048      H1061   1.084       .  S
C1049      C1050   1.414       .  A
C1049      H1062   1.078       .  S
C1050      C1056   1.428       .  A
C1050      C1051   1.423       .  A
C1051      C1053   1.399       .  A
C1051      C1052   1.405       .  A
C1052      H1063   1.085       .  S
C1053      C1054   1.389       .  A
C1053      H1064   1.084       .  S
C1054      C1055   1.399       .  A
C1054      H1065   1.084       .  S
C1055      C1056   1.422       .  A
C1055      C1060   1.403       .  A
C1056      C1057   1.416       .  A
C1057      C1058   1.396       .  A
C1057      H1066   1.078       .  S
C1058      C1059   1.398       .  A
C1058      H1067   1.084       .  S
C1059      C1060   1.398       .  A
C1060      H1068   1.085       .  S
C1069      C1070   1.399       .  A
C1069      C1074   1.402       .  A
C1070      C1071   1.396       .  A
C1070      H1083   1.083       .  S
C1071      C1072   1.416       .  A
C1071      H1084   1.076       .  S
C1072      C1078   1.429   1_554  A
C1072      C1073   1.421       .  A
C1073      C1075   1.400       .  A
C1073      C1074   1.403       .  A
C1074      H1085   1.084       .  S
C1075      C1076   1.389   1_554  A
C1075      H1086   1.084       .  S
C1076      C1077   1.399       .  A
C1076      H1087   1.084       .  S
C1077      C1078   1.423       .  A
C1077      C1082   1.406       .  A
C1078      C1079   1.413       .  A
C1079      C1080   1.394       .  A
C1079      H1088   1.076       .  S
C1080      C1081   1.401       .  A
C1080      H1089   1.083       .  S
C1081      C1082   1.401       .  A
C1082      H1090   1.084       .  S
C1091      C1092   1.399       .  A
C1091      C1096   1.401       .  A
C1092      C1093   1.396       .  A
C1092      H1105   1.084       .  S
C1093      C1094   1.415       .  A
C1093      H1106   1.078       .  S
C1094      C1100   1.429       .  A
C1094      C1095   1.422       .  A
C1095      C1097   1.400       .  A
C1095      C1096   1.406       .  A
C1096      H1107   1.085       .  S
C1097      C1098   1.391       .  A
C1097      H1108   1.084       .  S
C1098      C1099   1.400       .  A
C1098      H1109   1.084       .  S
C1099      C1100   1.423       .  A
C1099      C1104   1.406       .  A
C1100      C1101   1.415       .  A
C1101      C1102   1.396       .  A
C1101      H1110   1.078       .  S
C1102      C1103   1.398       .  A
C1102      H1111   1.084       .  S
C1103      C1104   1.400       .  A
C1104      H1112   1.085       .  S
C1113      C1114   1.402       .  A
C1113      C1118   1.402       .  A
C1114      C1115   1.394       .  A
C1114      H1127   1.083       .  S
C1115      C1116   1.413       .  A
C1115      H1128   1.077       .  S
C1116      C1122   1.429   1_545  A
C1116      C1117   1.423       .  A
C1117      C1119   1.399       .  A
C1117      C1118   1.406       .  A
C1118      H1129   1.084       .  S
C1119      C1120   1.390   1_545  A
C1119      H1130   1.084       .  S
C1120      C1121   1.400       .  A
C1120      H1131   1.084       .  S
C1121      C1122   1.422       .  A
C1121      C1126   1.405       .  A
C1122      C1123   1.415       .  A
C1123      C1124   1.396       .  A
C1123      H1132   1.077       .  S
C1124      C1125   1.400       .  A
C1124      H1133   1.083       .  S
C1125      C1126   1.404       .  A
C1126      H1134   1.084       .  S
C1135      C1136   1.399       .  A
C1135      C1140   1.401       .  A
C1136      C1137   1.396       .  A
C1136      H1149   1.084       .  S
C1137      C1138   1.415       .  A
C1137      H1150   1.078       .  S
C1138      C1144   1.429       .  A
C1138      C1139   1.423       .  A
C1139      C1141   1.400       .  A
C1139      C1140   1.406       .  A
C1140      H1151   1.085       .  S
C1141      C1142   1.391       .  A
C1141      H1152   1.084       .  S
C1142      C1143   1.400       .  A
C1142      H1153   1.084       .  S
C1143      C1144   1.422       .  A
C1143      C1148   1.406       .  A
C1144      C1145   1.415       .  A
C1145      C1146   1.397       .  A
C1145      H1154   1.078       .  S
C1146      C1147   1.399       .  A
C1146      H1155   1.083       .  S
C1147      C1148   1.401       .  A
C1148      H1156   1.085       .  S
C1157      C1158   1.401       .  A
C1157      C1162   1.403       .  A
C1158      C1159   1.396       .  A
C1158      H1171   1.083       .  S
C1159      C1160   1.415       .  A
C1159      H1172   1.077       .  S
C1160      C1166   1.430   1_565  A
C1160      C1161   1.422       .  A
C1161      C1163   1.400       .  A
C1161      C1162   1.405       .  A
C1162      H1173   1.084       .  S
C1163      C1164   1.390   1_565  A
C1163      H1174   1.084       .  S
C1164      C1165   1.400       .  A
C1164      H1175   1.084       .  S
C1165      C1166   1.423       .  A
C1165      C1170   1.406       .  A
C1166      C1167   1.414       .  A
C1167      C1168   1.395       .  A
C1167      H1176   1.077       .  S
C1168      C1169   1.401       .  A
C1168      H1177   1.083       .  S
C1169      C1170   1.403       .  A
C1170      H1178   1.084       .  S
C1179      C1180   1.401       .  A
C1179      C1184   1.403       .  A
C1180      C1181   1.395       .  A
C1180      H1193   1.083       .  S
C1181      C1182   1.415       .  A
C1181      H1194   1.077       .  S
C1182      C1188   1.430   1_556  A
C1182      C1183   1.422       .  A
C1183      C1185   1.400       .  A
C1183      C1184   1.406       .  A
C1184      H1195   1.084       .  S
C1185      C1186   1.391   1_556  A
C1185      H1196   1.084       .  S
C1186      C1187   1.400       .  A
C1186      H1197   1.084       .  S
C1187      C1188   1.423       .  A
C1187      C1192   1.407       .  A
C1188      C1189   1.414       .  A
C1189      C1190   1.395       .  A
C1189      H1198   1.077       .  S
C1190      C1191   1.401       .  A
C1190      H1199   1.083       .  S
C1191      C1192   1.404       .  A
C1192      H1200   1.084       .  S
C1201      C1202   1.399       .  A
C1201      C1206   1.402       .  A
C1202      C1203   1.396       .  A
C1202      H1215   1.084       .  S
C1203      C1204   1.415       .  A
C1203      H1216   1.078       .  S
C1204      C1210   1.428       .  A
C1204      C1205   1.422       .  A
C1205      C1207   1.400       .  A
C1205      C1206   1.406       .  A
C1206      H1217   1.085       .  S
C1207      C1208   1.391       .  A
C1207      H1218   1.084       .  S
C1208      C1209   1.400       .  A
C1208      H1219   1.084       .  S
C1209      C1210   1.422       .  A
C1209      C1214   1.405       .  A
C1210      C1211   1.415       .  A
C1211      C1212   1.396       .  A
C1211      H1220   1.078       .  S
C1212      C1213   1.397       .  A
C1212      H1221   1.084       .  S
C1213      C1214   1.400       .  A
C1214      H1222   1.085       .  S
C1223      C1224   1.399       .  A
C1223      C1228   1.403       .  A
C1224      C1225   1.394       .  A
C1224      H1237   1.084       .  S
C1225      C1226   1.413       .  A
C1225      H1238   1.077       .  S
C1226      C1232   1.428       .  A
C1226      C1227   1.422       .  A
C1227      C1229   1.401       .  A
C1227      C1228   1.409       .  A
C1228      H1239   1.084       .  S
C1229      C1230   1.393       .  A
C1229      H1240   1.084       .  S
C1230      C1231   1.401       .  A
C1230      H1241   1.084       .  S
C1231      C1232   1.423       .  A
C1231      C1236   1.408       .  A
C1232      C1233   1.414       .  A
C1233      C1234   1.394       .  A
C1233      H1242   1.077       .  S
C1234      C1235   1.398       .  A
C1234      H1243   1.084       .  S
C1235      C1236   1.401       .  A
C1236      H1244   1.085       .  S
C1245      C1246   1.402       .  A
C1245      C1250   1.402       .  A
C1246      C1247   1.398       .  A
C1246      H1259   1.083       .  S
C1247      C1248   1.415       .  A
C1247      H1260   1.077       .  S
C1248      C1254   1.432   1_554  A
C1248      C1249   1.422       .  A
C1249      C1251   1.399       .  A
C1249      C1250   1.405       .  A
C1250      H1261   1.084       .  S
C1251      C1252   1.389   1_554  A
C1251      H1262   1.084       .  S
C1252      C1253   1.399       .  A
C1252      H1263   1.084       .  S
C1253      C1254   1.423       .  A
C1253      C1258   1.405       .  A
C1254      C1255   1.415       .  A
C1255      C1256   1.398       .  A
C1255      H1264   1.077       .  S
C1256      C1257   1.402       .  A
C1256      H1265   1.083       .  S
C1257      C1258   1.402       .  A
C1258      H1266   1.084       .  S
C1267      C1268   1.399       .  A
C1267      C1272   1.401       .  A
C1268      C1269   1.397       .  A
C1268      H1281   1.083       .  S
C1269      C1270   1.415       .  A
C1269      H1282   1.078       .  S
C1270      C1276   1.430       .  A
C1270      C1271   1.422       .  A
C1271      C1273   1.400       .  A
C1271      C1272   1.405       .  A
C1272      H1283   1.085       .  S
C1273      C1274   1.391       .  A
C1273      H1284   1.084       .  S
C1274      C1275   1.400       .  A
C1274      H1285   1.084       .  S
C1275      C1276   1.422       .  A
C1275      C1280   1.406       .  A
C1276      C1277   1.415       .  A
C1277      C1278   1.398       .  A
C1277      H1286   1.078       .  S
C1278      C1279   1.399       .  A
C1278      H1287   1.084       .  S
C1279      C1280   1.401       .  A
C1280      H1288   1.085       .  S
C1289      C1290   1.401       .  A
C1289      C1294   1.401       .  A
C1290      C1291   1.398       .  A
C1290      H1303   1.083       .  S
C1291      C1292   1.415       .  A
C1291      H1304   1.077       .  S
C1292      C1298   1.431   1_655  A
C1292      C1293   1.423       .  A
C1293      C1295   1.399       .  A
C1293      C1294   1.403       .  A
C1294      H1305   1.084       .  S
C1295      C1296   1.387   1_655  A
C1295      H1306   1.084       .  S
C1296      C1297   1.399       .  A
C1296      H1307   1.084       .  S
C1297      C1298   1.422       .  A
C1297      C1302   1.401       .  A
C1298      C1299   1.416       .  A
C1299      C1300   1.399       .  A
C1299      H1308   1.077       .  S
C1300      C1301   1.401       .  A
C1300      H1309   1.083       .  S
C1301      C1302   1.401       .  A
C1302      H1310   1.085       .  S
C1311      C1312   1.399       .  A
C1311      C1316   1.400       .  A
C1312      C1313   1.396       .  A
C1312      H1325   1.084       .  S
C1313      C1314   1.414       .  A
C1313      H1326   1.078       .  S
C1314      C1320   1.428       .  A
C1314      C1315   1.422       .  A
C1315      C1317   1.399       .  A
C1315      C1316   1.405       .  A
C1316      H1327   1.085       .  S
C1317      C1318   1.390       .  A
C1317      H1328   1.084       .  S
C1318      C1319   1.399       .  A
C1318      H1329   1.084       .  S
C1319      C1320   1.422       .  A
C1319      C1324   1.404       .  A
C1320      C1321   1.415       .  A
C1321      C1322   1.397       .  A
C1321      H1330   1.078       .  S
C1322      C1323   1.399       .  A
C1322      H1331   1.083       .  S
C1323      C1324   1.399       .  A
C1324      H1332   1.085       .  S
C1333      C1334   1.401       .  A
C1333      C1338   1.403       .  A
C1334      C1335   1.398       .  A
C1334      H1347   1.083       .  S
C1335      C1336   1.416       .  A
C1335      H1348   1.077       .  S
C1336      C1342   1.431   1_655  A
C1336      C1337   1.422       .  A
C1337      C1339   1.399       .  A
C1337      C1338   1.403       .  A
C1338      H1349   1.084       .  S
C1339      C1340   1.389   1_655  A
C1339      H1350   1.084       .  S
C1340      C1341   1.399       .  A
C1340      H1351   1.084       .  S
C1341      C1342   1.423       .  A
C1341      C1346   1.404       .  A
C1342      C1343   1.414       .  A
C1343      C1344   1.397       .  A
C1343      H1352   1.077       .  S
C1344      C1345   1.401       .  A
C1344      H1353   1.083       .  S
C1345      C1346   1.402       .  A
C1346      H1354   1.084       .  S
C1355      C1356   1.402       .  A
C1355      C1360   1.403       .  A
C1356      C1357   1.396       .  A
C1356      H1369   1.083       .  S
C1357      C1358   1.414       .  A
C1357      H1370   1.077       .  S
C1358      C1364   1.431   1_556  A
C1358      C1359   1.423       .  A
C1359      C1361   1.400       .  A
C1359      C1360   1.407       .  A
C1360      H1371   1.084       .  S
C1361      C1362   1.391   1_556  A
C1361      H1372   1.084       .  S
C1362      C1363   1.400       .  A
C1362      H1373   1.084       .  S
C1363      C1364   1.422       .  A
C1363      C1368   1.407       .  A
C1364      C1365   1.415       .  A
C1365      C1366   1.396       .  A
C1365      H1374   1.077       .  S
C1366      C1367   1.402       .  A
C1366      H1375   1.083       .  S
C1367      C1368   1.403       .  A
C1368      H1376   1.084       .  S
C1377      C1378   1.398       .  A
C1377      C1382   1.400       .  A
C1378      C1379   1.399       .  A
C1378      H1391   1.083       .  S
C1379      C1380   1.417       .  A
C1379      H1392   1.078       .  S
C1380      C1386   1.429       .  A
C1380      C1381   1.422       .  A
C1381      C1383   1.399       .  A
C1381      C1382   1.403       .  A
C1382      H1393   1.085       .  S
C1383      C1384   1.389       .  A
C1383      H1394   1.084       .  S
C1384      C1385   1.399       .  A
C1384      H1395   1.084       .  S
C1385      C1386   1.423       .  A
C1385      C1390   1.404       .  A
C1386      C1387   1.415       .  A
C1387      C1388   1.398       .  A
C1387      H1396   1.078       .  S
C1388      C1389   1.399       .  A
C1388      H1397   1.084       .  S
C1389      C1390   1.399       .  A
C1390      H1398   1.085       .  S
C1399      C1400   1.399       .  A
C1399      C1404   1.400       .  A
C1400      C1401   1.395       .  A
C1400      H1413   1.084       .  S
C1401      C1402   1.414       .  A
C1401      H1414   1.077       .  S
C1402      C1408   1.429       .  A
C1402      C1403   1.423       .  A
C1403      C1405   1.400       .  A
C1403      C1404   1.407       .  A
C1404      H1415   1.084       .  S
C1405      C1406   1.391       .  A
C1405      H1416   1.084       .  S
C1406      C1407   1.400       .  A
C1406      H1417   1.084       .  S
C1407      C1408   1.423       .  A
C1407      C1412   1.406       .  A
C1408      C1409   1.415       .  A
C1409      C1410   1.395       .  A
C1409      H1418   1.077       .  S
C1410      C1411   1.398       .  A
C1410      H1419   1.084       .  S
C1411      C1412   1.400       .  A
C1412      H1420   1.085       .  S
C1421      C1422   1.401       .  A
C1421      C1426   1.401       .  A
C1422      C1423   1.399       .  A
C1422      H1435   1.083       .  S
C1423      C1424   1.416       .  A
C1423      H1436   1.077       .  S
C1424      C1430   1.431   1_556  A
C1424      C1425   1.422       .  A
C1425      C1427   1.399       .  A
C1425      C1426   1.402       .  A
C1426      H1437   1.084       .  S
C1427      C1428   1.387   1_556  A
C1427      H1438   1.084       .  S
C1428      C1429   1.398       .  A
C1428      H1439   1.084       .  S
C1429      C1430   1.423       .  A
C1429      C1434   1.403       .  A
C1430      C1431   1.415       .  A
C1431      C1432   1.398       .  A
C1431      H1440   1.077       .  S
C1432      C1433   1.402       .  A
C1432      H1441   1.083       .  S
C1433      C1434   1.401       .  A
C1434      H1442   1.084       .  S
C1443      C1444   1.398       .  A
C1443      C1448   1.398       .  A
C1444      C1445   1.396       .  A
C1444      H1457   1.084       .  S
C1445      C1446   1.415       .  A
C1445      H1458   1.077       .  S
C1446      C1452   1.428       .  A
C1446      C1447   1.423       .  A
C1447      C1449   1.399       .  A
C1447      C1448   1.403       .  A
C1448      H1459   1.085       .  S
C1449      C1450   1.389       .  A
C1449      H1460   1.084       .  S
C1450      C1451   1.399       .  A
C1450      H1461   1.084       .  S
C1451      C1452   1.423       .  A
C1451      C1456   1.404       .  A
C1452      C1453   1.415       .  A
C1453      C1454   1.396       .  A
C1453      H1462   1.077       .  S
C1454      C1455   1.399       .  A
C1454      H1463   1.084       .  S
C1455      C1456   1.400       .  A
C1456      H1464   1.085       .  S
C1465      C1466   1.401       .  A
C1465      C1470   1.403       .  A
C1466      C1467   1.397       .  A
C1466      H1479   1.083       .  S
C1467      C1468   1.415       .  A
C1467      H1480   1.077       .  S
C1468      C1474   1.431   1_545  A
C1468      C1469   1.422       .  A
C1469      C1471   1.399       .  A
C1469      C1470   1.405       .  A
C1470      H1481   1.084       .  S
C1471      C1472   1.389   1_545  A
C1471      H1482   1.084       .  S
C1472      C1473   1.399       .  A
C1472      H1483   1.084       .  S
C1473      C1474   1.422       .  A
C1473      C1478   1.404       .  A
C1474      C1475   1.415       .  A
C1475      C1476   1.397       .  A
C1475      H1484   1.076       .  S
C1476      C1477   1.401       .  A
C1476      H1485   1.083       .  S
C1477      C1478   1.402       .  A
C1478      H1486   1.084       .  S
C1487      C1488   1.397       .  A
C1487      C1492   1.399       .  A
C1488      C1489   1.397       .  A
C1488      H1501   1.084       .  S
C1489      C1490   1.416       .  A
C1489      H1502   1.078       .  S
C1490      C1496   1.430       .  A
C1490      C1491   1.423       .  A
C1491      C1493   1.399       .  A
C1491      C1492   1.405       .  A
C1492      H1503   1.085       .  S
C1493      C1494   1.390       .  A
C1493      H1504   1.084       .  S
C1494      C1495   1.399       .  A
C1494      H1505   1.084       .  S
C1495      C1496   1.423       .  A
C1495      C1500   1.406       .  A
C1496      C1497   1.415       .  A
C1497      C1498   1.397       .  A
C1497      H1506   1.078       .  S
C1498      C1499   1.401       .  A
C1498      H1507   1.083       .  S
C1499      C1500   1.400       .  A
C1500      H1508   1.085       .  S
C1509      C1510   1.400       .  A
C1509      C1514   1.404       .  A
C1510      C1511   1.394       .  A
C1510      H1523   1.083       .  S
C1511      C1512   1.414       .  A
C1511      H1524   1.076       .  S
C1512      C1518   1.429   1_565  A
C1512      C1513   1.422       .  A
C1513      C1515   1.400       .  A
C1513      C1514   1.407       .  A
C1514      H1525   1.084       .  S
C1515      C1516   1.391   1_565  A
C1515      H1526   1.084       .  S
C1516      C1517   1.400       .  A
C1516      H1527   1.084       .  S
C1517      C1518   1.422       .  A
C1517      C1522   1.407       .  A
C1518      C1519   1.414       .  A
C1519      C1520   1.394       .  A
C1519      H1528   1.076       .  S
C1520      C1521   1.401       .  A
C1520      H1529   1.083       .  S
C1521      C1522   1.404       .  A
C1522      H1530   1.084       .  S
C1531      C1532   1.401       .  A
C1531      C1536   1.401       .  A
C1532      C1533   1.395       .  A
C1532      H1545   1.083       .  S
C1533      C1534   1.414       .  A
C1533      H1546   1.077       .  S
C1534      C1540   1.429   1_554  A
C1534      C1535   1.423       .  A
C1535      C1537   1.399       .  A
C1535      C1536   1.404       .  A
C1536      H1547   1.084       .  S
C1537      C1538   1.389   1_554  A
C1537      H1548   1.084       .  S
C1538      C1539   1.399       .  A
C1538      H1549   1.084       .  S
C1539      C1540   1.422       .  A
C1539      C1544   1.403       .  A
C1540      C1541   1.415       .  A
C1541      C1542   1.396       .  A
C1541      H1550   1.077       .  S
C1542      C1543   1.400       .  A
C1542      H1551   1.083       .  S
C1543      C1544   1.401       .  A
C1544      H1552   1.084       .  S
C1553      C1554   1.401       .  A
C1553      C1558   1.403       .  A
C1554      C1555   1.397       .  A
C1554      H1567   1.083       .  S
C1555      C1556   1.416       .  A
C1555      H1568   1.077       .  S
C1556      C1562   1.430   1_545  A
C1556      C1557   1.421       .  A
C1557      C1559   1.400       .  A
C1557      C1558   1.404       .  A
C1558      H1569   1.084       .  S
C1559      C1560   1.389   1_545  A
C1559      H1570   1.084       .  S
C1560      C1561   1.399       .  A
C1560      H1571   1.084       .  S
C1561      C1562   1.423       .  A
C1561      C1566   1.406       .  A
C1562      C1563   1.414       .  A
C1563      C1564   1.395       .  A
C1563      H1572   1.077       .  S
C1564      C1565   1.401       .  A
C1564      H1573   1.083       .  S
C1565      C1566   1.403       .  A
C1566      H1574   1.084       .  S
C1575      C1576   1.401       .  A
C1575      C1580   1.402       .  A
C1576      C1577   1.394       .  A
C1576      H1589   1.083       .  S
C1577      C1578   1.414       .  A
C1577      H1590   1.078       .  S
C1578      C1584   1.428   1_455  A
C1578      C1579   1.422       .  A
C1579      C1581   1.399       .  A
C1579      C1580   1.404       .  A
C1580      H1591   1.085       .  S
C1581      C1582   1.389   1_455  A
C1581      H1592   1.084       .  S
C1582      C1583   1.399       .  A
C1582      H1593   1.084       .  S
C1583      C1584   1.422       .  A
C1583      C1588   1.404       .  A
C1584      C1585   1.414       .  A
C1585      C1586   1.394       .  A
C1585      H1594   1.078       .  S
C1586      C1587   1.401       .  A
C1586      H1595   1.083       .  S
C1587      C1588   1.402       .  A
C1588      H1596   1.084       .  S
C1597      C1598   1.401       .  A
C1597      C1602   1.402       .  A
C1598      C1599   1.394       .  A
C1598      H1611   1.084       .  S
C1599      C1600   1.414       .  A
C1599      H1612   1.075       .  S
C1600      C1606   1.429   1_455  A
C1600      C1601   1.422       .  A
C1601      C1603   1.399       .  A
C1601      C1602   1.405       .  A
C1602      H1613   1.084       .  S
C1603      C1604   1.390   1_455  A
C1603      H1614   1.084       .  S
C1604      C1605   1.399       .  A
C1604      H1615   1.084       .  S
C1605      C1606   1.422       .  A
C1605      C1610   1.404       .  A
C1606      C1607   1.415       .  A
C1607      C1608   1.395       .  A
C1607      H1616   1.075       .  S
C1608      C1609   1.400       .  A
C1608      H1617   1.084       .  S
C1609      C1610   1.402       .  A
C1610      H1618   1.084       .  S
C1619      C1620   1.402       .  A
C1619      C1624   1.403       .  A
C1620      C1621   1.398       .  A
C1620      H1633   1.083       .  S
C1621      C1622   1.415       .  A
C1621      H1634   1.077       .  S
C1622      C1628   1.432   1_565  A
C1622      C1623   1.422       .  A
C1623      C1625   1.399       .  A
C1623      C1624   1.405       .  A
C1624      H1635   1.084       .  S
C1625      C1626   1.389   1_565  A
C1625      H1636   1.084       .  S
C1626      C1627   1.399       .  A
C1626      H1637   1.084       .  S
C1627      C1628   1.423       .  A
C1627      C1632   1.406       .  A
C1628      C1629   1.415       .  A
C1629      C1630   1.398       .  A
C1629      H1638   1.077       .  S
C1630      C1631   1.402       .  A
C1630      H1639   1.083       .  S
C1631      C1632   1.402       .  A
C1632      H1640   1.084       .  S
C1641      C1642   1.400       .  A
C1641      C1646   1.400       .  A
C1642      C1643   1.399       .  A
C1642      H1655   1.083       .  S
C1643      C1644   1.415       .  A
C1643      H1656   1.078       .  S
C1644      C1650   1.432       .  A
C1644      C1645   1.423       .  A
C1645      C1647   1.399       .  A
C1645      C1646   1.406       .  A
C1646      H1657   1.085       .  S
C1647      C1648   1.390       .  A
C1647      H1658   1.084       .  S
C1648      C1649   1.399       .  A
C1648      H1659   1.084       .  S
C1649      C1650   1.423       .  A
C1649      C1654   1.406       .  A
C1650      C1651   1.416       .  A
C1651      C1652   1.399       .  A
C1651      H1660   1.078       .  S
C1652      C1653   1.400       .  A
C1652      H1661   1.083       .  S
C1653      C1654   1.400       .  A
C1654      H1662   1.085       .  S
C1663      C1664   1.399       .  A
C1663      C1668   1.399       .  A
C1664      C1665   1.397       .  A
C1664      H1677   1.083       .  S
C1665      C1666   1.415       .  A
C1665      H1678   1.078       .  S
C1666      C1672   1.428       .  A
C1666      C1667   1.422       .  A
C1667      C1669   1.399       .  A
C1667      C1668   1.402       .  A
C1668      H1679   1.085       .  S
C1669      C1670   1.389       .  A
C1669      H1680   1.084       .  S
C1670      C1671   1.399       .  A
C1670      H1681   1.084       .  S
C1671      C1672   1.423       .  A
C1671      C1676   1.402       .  A
C1672      C1673   1.416       .  A
C1673      C1674   1.397       .  A
C1673      H1682   1.078       .  S
C1674      C1675   1.398       .  A
C1674      H1683   1.083       .  S
C1675      C1676   1.398       .  A
C1676      H1684   1.085       .  S
C1685      C1686   1.399       .  A
C1685      C1690   1.401       .  A
C1686      C1687   1.395       .  A
C1686      H1699   1.083       .  S
C1687      C1688   1.414       .  A
C1687      H1700   1.078       .  S
C1688      C1694   1.426       .  A
C1688      C1689   1.422       .  A
C1689      C1691   1.400       .  A
C1689      C1690   1.403       .  A
C1690      H1701   1.085       .  S
C1691      C1692   1.390       .  A
C1691      H1702   1.084       .  S
C1692      C1693   1.400       .  A
C1692      H1703   1.084       .  S
C1693      C1694   1.422       .  A
C1693      C1698   1.403       .  A
C1694      C1695   1.415       .  A
C1695      C1696   1.396       .  A
C1695      H1704   1.078       .  S
C1696      C1697   1.397       .  A
C1696      H1705   1.084       .  S
C1697      C1698   1.399       .  A
C1698      H1706   1.085       .  S
C1707      C1708   1.402       .  A
C1707      C1712   1.402       .  A
C1708      C1709   1.397       .  A
C1708      H1721   1.083       .  S
C1709      C1710   1.414       .  A
C1709      H1722   1.077       .  S
C1710      C1716   1.431       .  A
C1710      C1711   1.423       .  A
C1711      C1713   1.399       .  A
C1711      C1712   1.405       .  A
C1712      H1723   1.084       .  S
C1713      C1714   1.388       .  A
C1713      H1724   1.084       .  S
C1714      C1715   1.399       .  A
C1714      H1725   1.084       .  S
C1715      C1716   1.421       .  A
C1715      C1720   1.403       .  A
C1716      C1717   1.416       .  A
C1717      C1718   1.399       .  A
C1717      H1726   1.077       .  S
C1718      C1719   1.401       .  A
C1718      H1727   1.083       .  S
C1719      C1720   1.403       .  A
C1720      H1728   1.084       .  S
C1729      C1730   1.399       .  A
C1729      C1734   1.400       .  A
C1730      C1731   1.397       .  A
C1730      H1743   1.083       .  S
C1731      C1732   1.416       .  A
C1731      H1744   1.077       .  S
C1732      C1738   1.430       .  A
C1732      C1733   1.422       .  A
C1733      C1735   1.399       .  A
C1733      C1734   1.405       .  A
C1734      H1745   1.085       .  S
C1735      C1736   1.390       .  A
C1735      H1746   1.084       .  S
C1736      C1737   1.399       .  A
C1736      H1747   1.084       .  S
C1737      C1738   1.424       .  A
C1737      C1742   1.406       .  A
C1738      C1739   1.415       .  A
C1739      C1740   1.397       .  A
C1739      H1748   1.077       .  S
C1740      C1741   1.398       .  A
C1740      H1749   1.084       .  S
C1741      C1742   1.399       .  A
C1742      H1750   1.085       .  S
C1751      C1752   1.398       .  A
C1751      C1756   1.400       .  A
C1752      C1753   1.395       .  A
C1752      H1765   1.084       .  S
C1753      C1754   1.415       .  A
C1753      H1766   1.077       .  S
C1754      C1760   1.429       .  A
C1754      C1755   1.422       .  A
C1755      C1757   1.400       .  A
C1755      C1756   1.406       .  A
C1756      H1767   1.084       .  S
C1757      C1758   1.391       .  A
C1757      H1768   1.084       .  S
C1758      C1759   1.400       .  A
C1758      H1769   1.084       .  S
C1759      C1760   1.423       .  A
C1759      C1764   1.406       .  A
C1760      C1761   1.415       .  A
C1761      C1762   1.396       .  A
C1761      H1770   1.077       .  S
C1762      C1763   1.398       .  A
C1762      H1771   1.084       .  S
C1763      C1764   1.400       .  A
C1764      H1772   1.085       .  S
C1773      C1774   1.402       .  A
C1773      C1778   1.402       .  A
C1774      C1775   1.399       .  A
C1774      H1787   1.083       .  S
C1775      C1776   1.416       .  A
C1775      H1788   1.077       .  S
C1776      C1782   1.432       .  A
C1776      C1777   1.422       .  A
C1777      C1779   1.399       .  A
C1777      C1778   1.403       .  A
C1778      H1789   1.084       .  S
C1779      C1780   1.388       .  A
C1779      H1790   1.084       .  S
C1780      C1781   1.398       .  A
C1780      H1791   1.084       .  S
C1781      C1782   1.423       .  A
C1781      C1786   1.403       .  A
C1782      C1783   1.415       .  A
C1783      C1784   1.398       .  A
C1783      H1792   1.077       .  S
C1784      C1785   1.402       .  A
C1784      H1793   1.083       .  S
C1785      C1786   1.400       .  A
C1786      H1794   1.085       .  S
C1795      C1796   1.398       .  A
C1795      C1800   1.400       .  A
C1796      C1797   1.395       .  A
C1796      H1809   1.084       .  S
C1797      C1798   1.415       .  A
C1797      H1810   1.077       .  S
C1798      C1804   1.429       .  A
C1798      C1799   1.422       .  A
C1799      C1801   1.400       .  A
C1799      C1800   1.407       .  A
C1800      H1811   1.085       .  S
C1801      C1802   1.392       .  A
C1801      H1812   1.084       .  S
C1802      C1803   1.400       .  A
C1802      H1813   1.084       .  S
C1803      C1804   1.423       .  A
C1803      C1808   1.407       .  A
C1804      C1805   1.414       .  A
C1805      C1806   1.394       .  A
C1805      H1814   1.077       .  S
C1806      C1807   1.399       .  A
C1806      H1815   1.084       .  S
C1807      C1808   1.401       .  A
C1808      H1816   1.084       .  S
C1817      C1818   1.400       .  A
C1817      C1822   1.404       .  A
C1818      C1819   1.395       .  A
C1818      H1831   1.083       .  S
C1819      C1820   1.415       .  A
C1819      H1832   1.077       .  S
C1820      C1826   1.430       .  A
C1820      C1821   1.422       .  A
C1821      C1823   1.400       .  A
C1821      C1822   1.405       .  A
C1822      H1833   1.084       .  S
C1823      C1824   1.390       .  A
C1823      H1834   1.084       .  S
C1824      C1825   1.400       .  A
C1824      H1835   1.084       .  S
C1825      C1826   1.422       .  A
C1825      C1830   1.406       .  A
C1826      C1827   1.414       .  A
C1827      C1828   1.395       .  A
C1827      H1836   1.077       .  S
C1828      C1829   1.401       .  A
C1828      H1837   1.083       .  S
C1829      C1830   1.403       .  A
C1830      H1838   1.084       .  S
C1839      C1840   1.401       .  A
C1839      C1844   1.403       .  A
C1840      C1841   1.396       .  A
C1840      H1853   1.083       .  S
C1841      C1842   1.415       .  A
C1841      H1854   1.077       .  S
C1842      C1848   1.431       .  A
C1842      C1843   1.422       .  A
C1843      C1845   1.400       .  A
C1843      C1844   1.406       .  A
C1844      H1855   1.084       .  S
C1845      C1846   1.390       .  A
C1845      H1856   1.084       .  S
C1846      C1847   1.399       .  A
C1846      H1857   1.084       .  S
C1847      C1848   1.423       .  A
C1847      C1852   1.406       .  A
C1848      C1849   1.414       .  A
C1849      C1850   1.396       .  A
C1849      H1858   1.077       .  S
C1850      C1851   1.402       .  A
C1850      H1859   1.083       .  S
C1851      C1852   1.402       .  A
C1852      H1860   1.084       .  S
C1861      C1862   1.400       .  A
C1861      C1866   1.402       .  A
C1862      C1863   1.397       .  A
C1862      H1875   1.083       .  S
C1863      C1864   1.415       .  A
C1863      H1876   1.078       .  S
C1864      C1870   1.429       .  A
C1864      C1865   1.421       .  A
C1865      C1867   1.400       .  A
C1865      C1866   1.404       .  A
C1866      H1877   1.084       .  S
C1867      C1868   1.391       .  A
C1867      H1878   1.084       .  S
C1868      C1869   1.399       .  A
C1868      H1879   1.084       .  S
C1869      C1870   1.423       .  A
C1869      C1874   1.406       .  A
C1870      C1871   1.415       .  A
C1871      C1872   1.396       .  A
C1871      H1880   1.078       .  S
C1872      C1873   1.398       .  A
C1872      H1881   1.084       .  S
C1873      C1874   1.399       .  A
C1874      H1882   1.085       .  S
C1883      C1884   1.401       .  A
C1883      C1888   1.402       .  A
C1884      C1885   1.397       .  A
C1884      H1897   1.083       .  S
C1885      C1886   1.415       .  A
C1885      H1898   1.077       .  S
C1886      C1892   1.430       .  A
C1886      C1887   1.422       .  A
C1887      C1889   1.400       .  A
C1887      C1888   1.406       .  A
C1888      H1899   1.084       .  S
C1889      C1890   1.390       .  A
C1889      H1900   1.084       .  S
C1890      C1891   1.399       .  A
C1890      H1901   1.084       .  S
C1891      C1892   1.424       .  A
C1891      C1896   1.406       .  A
C1892      C1893   1.416       .  A
C1893      C1894   1.396       .  A
C1893      H1902   1.077       .  S
C1894      C1895   1.397       .  A
C1894      H1903   1.084       .  S
C1895      C1896   1.398       .  A
C1896      H1904   1.085       .  S
C1905      C1906   1.399       .  A
C1905      C1910   1.400       .  A
C1906      C1907   1.395       .  A
C1906      H1919   1.084       .  S
C1907      C1908   1.414       .  A
C1907      H1920   1.077       .  S
C1908      C1914   1.427       .  A
C1908      C1909   1.422       .  A
C1909      C1911   1.400       .  A
C1909      C1910   1.405       .  A
C1910      H1921   1.085       .  S
C1911      C1912   1.390       .  A
C1911      H1922   1.084       .  S
C1912      C1913   1.399       .  A
C1912      H1923   1.084       .  S
C1913      C1914   1.423       .  A
C1913      C1918   1.404       .  A
C1914      C1915   1.415       .  A
C1915      C1916   1.395       .  A
C1915      H1924   1.077       .  S
C1916      C1917   1.397       .  A
C1916      H1925   1.084       .  S
C1917      C1918   1.398       .  A
C1918      H1926   1.085       .  S
C1927      C1928   1.401       .  A
C1927      C1932   1.401       .  A
C1928      C1929   1.394       .  A
C1928      H1941   1.083       .  S
C1929      C1930   1.415       .  A
C1929      H1942   1.077       .  S
C1930      C1936   1.428       .  A
C1930      C1931   1.422       .  A
C1931      C1933   1.399       .  A
C1931      C1932   1.403       .  A
C1932      H1943   1.085       .  S
C1933      C1934   1.389       .  A
C1933      H1944   1.084       .  S
C1934      C1935   1.399       .  A
C1934      H1945   1.084       .  S
C1935      C1936   1.423       .  A
C1935      C1940   1.404       .  A
C1936      C1937   1.413       .  A
C1937      C1938   1.393       .  A
C1937      H1946   1.077       .  S
C1938      C1939   1.401       .  A
C1938      H1947   1.083       .  S
C1939      C1940   1.402       .  A
C1940      H1948   1.085       .  S
C1949      C1950   1.398       .  A
C1949      C1954   1.400       .  A
C1950      C1951   1.393       .  A
C1950      H1963   1.084       .  S
C1951      C1952   1.413       .  A
C1951      H1964   1.078       .  S
C1952      C1958   1.427       .  A
C1952      C1953   1.423       .  A
C1953      C1955   1.400       .  A
C1953      C1954   1.406       .  A
C1954      H1965   1.085       .  S
C1955      C1956   1.391       .  A
C1955      H1966   1.084       .  S
C1956      C1957   1.400       .  A
C1956      H1967   1.084       .  S
C1957      C1958   1.422       .  A
C1957      C1962   1.405       .  A
C1958      C1959   1.415       .  A
C1959      C1960   1.394       .  A
C1959      H1968   1.078       .  S
C1960      C1961   1.397       .  A
C1960      H1969   1.084       .  S
C1961      C1962   1.400       .  A
C1962      H1970   1.085       .  S
C1971      C1972   1.399       .  A
C1971      C1976   1.401       .  A
C1972      C1973   1.396       .  A
C1972      H1985   1.084       .  S
C1973      C1974   1.415       .  A
C1973      H1986   1.078       .  S
C1974      C1980   1.431       .  A
C1974      C1975   1.423       .  A
C1975      C1977   1.400       .  A
C1975      C1976   1.408       .  A
C1976      H1987   1.085       .  S
C1977      C1978   1.391       .  A
C1977      H1988   1.084       .  S
C1978      C1979   1.400       .  A
C1978      H1989   1.084       .  S
C1979      C1980   1.422       .  A
C1979      C1984   1.407       .  A
C1980      C1981   1.416       .  A
C1981      C1982   1.397       .  A
C1981      H1990   1.078       .  S
C1982      C1983   1.399       .  A
C1982      H1991   1.083       .  S
C1983      C1984   1.401       .  A
C1984      H1992   1.085       .  S
C1993      C1994   1.401       .  A
C1993      C1998   1.404       .  A
C1994      C1995   1.394       .  A
C1994      H2007   1.083       .  S
C1995      C1996   1.414       .  A
C1995      H2008   1.076       .  S
C1996      C2002   1.429       .  A
C1996      C1997   1.422       .  A
C1997      C1999   1.400       .  A
C1997      C1998   1.407       .  A
C1998      H2009   1.084       .  S
C1999      C2000   1.391       .  A
C1999      H2010   1.084       .  S
C2000      C2001   1.400       .  A
C2000      H2011   1.084       .  S
C2001      C2002   1.422       .  A
C2001      C2006   1.406       .  A
C2002      C2003   1.414       .  A
C2003      C2004   1.394       .  A
C2003      H2012   1.076       .  S
C2004      C2005   1.401       .  A
C2004      H2013   1.083       .  S
C2005      C2006   1.403       .  A
C2006      H2014   1.084       .  S
C2015      C2016   1.397       .  A
C2015      C2020   1.399       .  A
C2016      C2017   1.393       .  A
C2016      H2029   1.084       .  S
C2017      C2018   1.414       .  A
C2017      H2030   1.078       .  S
C2018      C2024   1.426       .  A
C2018      C2019   1.422       .  A
C2019      C2021   1.400       .  A
C2019      C2020   1.405       .  A
C2020      H2031   1.085       .  S
C2021      C2022   1.392       .  A
C2021      H2032   1.084       .  S
C2022      C2023   1.400       .  A
C2022      H2033   1.084       .  S
C2023      C2024   1.422       .  A
C2023      C2028   1.406       .  A
C2024      C2025   1.413       .  A
C2025      C2026   1.393       .  A
C2025      H2034   1.078       .  S
C2026      C2027   1.399       .  A
C2026      H2035   1.084       .  S
C2027      C2028   1.401       .  A
C2028      H2036   1.085       .  S
C2037      C2038   1.401       .  A
C2037      C2042   1.402       .  A
C2038      C2039   1.396       .  A
C2038      H2051   1.083       .  S
C2039      C2040   1.415       .  A
C2039      H2052   1.076       .  S
C2040      C2046   1.429       .  A
C2040      C2041   1.422       .  A
C2041      C2043   1.399       .  A
C2041      C2042   1.403       .  A
C2042      H2053   1.084       .  S
C2043      C2044   1.389       .  A
C2043      H2054   1.084       .  S
C2044      C2045   1.399       .  A
C2044      H2055   1.084       .  S
C2045      C2046   1.422       .  A
C2045      C2050   1.404       .  A
C2046      C2047   1.414       .  A
C2047      C2048   1.396       .  A
C2047      H2056   1.077       .  S
C2048      C2049   1.401       .  A
C2048      H2057   1.083       .  S
C2049      C2050   1.402       .  A
C2050      H2058   1.084       .  S
C2059      C2060   1.401       .  A
C2059      C2064   1.404       .  A
C2060      C2061   1.393       .  A
C2060      H2073   1.083       .  S
C2061      C2062   1.414       .  A
C2061      H2074   1.077       .  S
C2062      C2068   1.429       .  A
C2062      C2063   1.422       .  A
C2063      C2065   1.400       .  A
C2063      C2064   1.408       .  A
C2064      H2075   1.084       .  S
C2065      C2066   1.392       .  A
C2065      H2076   1.084       .  S
C2066      C2067   1.400       .  A
C2066      H2077   1.084       .  S
C2067      C2068   1.423       .  A
C2067      C2072   1.408       .  A
C2068      C2069   1.413       .  A
C2069      C2070   1.392       .  A
C2069      H2078   1.077       .  S
C2070      C2071   1.401       .  A
C2070      H2079   1.083       .  S
C2071      C2072   1.403       .  A
C2072      H2080   1.084       .  S
C2081      C2082   1.400       .  A
C2081      C2086   1.399       .  A
C2082      C2083   1.399       .  A
C2082      H2095   1.083       .  S
C2083      C2084   1.416       .  A
C2083      H2096   1.077       .  S
C2084      C2090   1.430       .  A
C2084      C2085   1.423       .  A
C2085      C2087   1.398       .  A
C2085      C2086   1.402       .  A
C2086      H2097   1.085       .  S
C2087      C2088   1.387       .  A
C2087      H2098   1.084       .  S
C2088      C2089   1.398       .  A
C2088      H2099   1.084       .  S
C2089      C2090   1.423       .  A
C2089      C2094   1.401       .  A
C2090      C2091   1.417       .  A
C2091      C2092   1.400       .  A
C2091      H2100   1.077       .  S
C2092      C2093   1.398       .  A
C2092      H2101   1.083       .  S
C2093      C2094   1.396       .  A
C2094      H2102   1.085       .  S
C2103      C2104   1.401       .  A
C2103      C2108   1.401       .  A
C2104      C2105   1.397       .  A
C2104      H2117   1.083       .  S
C2105      C2106   1.415       .  A
C2105      H2118   1.077       .  S
C2106      C2112   1.429       .  A
C2106      C2107   1.422       .  A
C2107      C2109   1.399       .  A
C2107      C2108   1.404       .  A
C2108      H2119   1.085       .  S
C2109      C2110   1.389       .  A
C2109      H2120   1.084       .  S
C2110      C2111   1.399       .  A
C2110      H2121   1.084       .  S
C2111      C2112   1.423       .  A
C2111      C2116   1.403       .  A
C2112      C2113   1.416       .  A
C2113      C2114   1.397       .  A
C2113      H2122   1.078       .  S
C2114      C2115   1.397       .  A
C2114      H2123   1.084       .  S
C2115      C2116   1.397       .  A
C2116      H2124   1.085       .  S
C2125      C2126   1.399       .  A
C2125      C2130   1.400       .  A
C2126      C2127   1.398       .  A
C2126      H2139   1.083       .  S
C2127      C2128   1.416       .  A
C2127      H2140   1.078       .  S
C2128      C2134   1.430       .  A
C2128      C2129   1.422       .  A
C2129      C2131   1.399       .  A
C2129      C2130   1.405       .  A
C2130      H2141   1.085       .  S
C2131      C2132   1.390       .  A
C2131      H2142   1.084       .  S
C2132      C2133   1.399       .  A
C2132      H2143   1.084       .  S
C2133      C2134   1.423       .  A
C2133      C2138   1.406       .  A
C2134      C2135   1.415       .  A
C2135      C2136   1.397       .  A
C2135      H2144   1.078       .  S
C2136      C2137   1.399       .  A
C2136      H2145   1.084       .  S
C2137      C2138   1.399       .  A
C2138      H2146   1.085       .  S
C2147      C2148   1.401       .  A
C2147      C2152   1.403       .  A
C2148      C2149   1.396       .  A
C2148      H2161   1.083       .  S
C2149      C2150   1.414       .  A
C2149      H2162   1.076       .  S
C2150      C2156   1.430       .  A
C2150      C2151   1.422       .  A
C2151      C2153   1.400       .  A
C2151      C2152   1.406       .  A
C2152      H2163   1.084       .  S
C2153      C2154   1.390       .  A
C2153      H2164   1.084       .  S
C2154      C2155   1.400       .  A
C2154      H2165   1.084       .  S
C2155      C2156   1.422       .  A
C2155      C2160   1.406       .  A
C2156      C2157   1.415       .  A
C2157      C2158   1.396       .  A
C2157      H2166   1.076       .  S
C2158      C2159   1.401       .  A
C2158      H2167   1.083       .  S
C2159      C2160   1.403       .  A
C2160      H2168   1.084       .  S
C2169      C2170   1.399       .  A
C2169      C2174   1.400       .  A
C2170      C2171   1.394       .  A
C2170      H2183   1.084       .  S
C2171      C2172   1.413       .  A
C2171      H2184   1.077       .  S
C2172      C2178   1.427       .  A
C2172      C2173   1.423       .  A
C2173      C2175   1.400       .  A
C2173      C2174   1.406       .  A
C2174      H2185   1.085       .  S
C2175      C2176   1.390       .  A
C2175      H2186   1.084       .  S
C2176      C2177   1.399       .  A
C2176      H2187   1.084       .  S
C2177      C2178   1.423       .  A
C2177      C2182   1.404       .  A
C2178      C2179   1.416       .  A
C2179      C2180   1.395       .  A
C2179      H2188   1.077       .  S
C2180      C2181   1.396       .  A
C2180      H2189   1.084       .  S
C2181      C2182   1.398       .  A
C2182      H2190   1.085       .  S
C2191      C2192   1.399       .  A
C2191      C2196   1.400       .  A
C2192      C2193   1.399       .  A
C2192      H2205   1.084       .  S
C2193      C2194   1.417       .  A
C2193      H2206   1.078       .  S
C2194      C2200   1.431       .  A
C2194      C2195   1.422       .  A
C2195      C2197   1.400       .  A
C2195      C2196   1.405       .  A
C2196      H2207   1.085       .  S
C2197      C2198   1.390       .  A
C2197      H2208   1.084       .  S
C2198      C2199   1.399       .  A
C2198      H2209   1.084       .  S
C2199      C2200   1.423       .  A
C2199      C2204   1.406       .  A
C2200      C2201   1.415       .  A
C2201      C2202   1.398       .  A
C2201      H2210   1.078       .  S
C2202      C2203   1.400       .  A
C2202      H2211   1.083       .  S
C2203      C2204   1.400       .  A
C2204      H2212   1.085       .  S
C2213      C2214   1.402       .  A
C2213      C2218   1.403       .  A
C2214      C2215   1.396       .  A
C2214      H2227   1.083       .  S
C2215      C2216   1.415       .  A
C2215      H2228   1.077       .  S
C2216      C2222   1.431       .  A
C2216      C2217   1.422       .  A
C2217      C2219   1.400       .  A
C2217      C2218   1.406       .  A
C2218      H2229   1.084       .  S
C2219      C2220   1.390       .  A
C2219      H2230   1.084       .  S
C2220      C2221   1.400       .  A
C2220      H2231   1.084       .  S
C2221      C2222   1.422       .  A
C2221      C2226   1.406       .  A
C2222      C2223   1.415       .  A
C2223      C2224   1.396       .  A
C2223      H2232   1.077       .  S
C2224      C2225   1.401       .  A
C2224      H2233   1.083       .  S
C2225      C2226   1.403       .  A
C2226      H2234   1.084       .  S
C2235      C2236   1.398       .  A
C2235      C2240   1.400       .  A
C2236      C2237   1.395       .  A
C2236      H2249   1.084       .  S
C2237      C2238   1.414       .  A
C2237      H2250   1.078       .  S
C2238      C2244   1.426       .  A
C2238      C2239   1.422       .  A
C2239      C2241   1.400       .  A
C2239      C2240   1.404       .  A
C2240      H2251   1.085       .  S
C2241      C2242   1.391       .  A
C2241      H2252   1.084       .  S
C2242      C2243   1.400       .  A
C2242      H2253   1.084       .  S
C2243      C2244   1.422       .  A
C2243      C2248   1.404       .  A
C2244      C2245   1.415       .  A
C2245      C2246   1.395       .  A
C2245      H2254   1.078       .  S
C2246      C2247   1.397       .  A
C2246      H2255   1.084       .  S
C2247      C2248   1.400       .  A
C2248      H2256   1.085       .  S
C2257      C2258   1.402       .  A
C2257      C2262   1.401       .  A
C2258      C2259   1.399       .  A
C2258      H2271   1.083       .  S
C2259      C2260   1.416       .  A
C2259      H2272   1.077       .  S
C2260      C2266   1.432       .  A
C2260      C2261   1.422       .  A
C2261      C2263   1.398       .  A
C2261      C2262   1.402       .  A
C2262      H2273   1.084       .  S
C2263      C2264   1.387       .  A
C2263      H2274   1.084       .  S
C2264      C2265   1.399       .  A
C2264      H2275   1.084       .  S
C2265      C2266   1.422       .  A
C2265      C2270   1.403       .  A
C2266      C2267   1.416       .  A
C2267      C2268   1.400       .  A
C2267      H2276   1.077       .  S
C2268      C2269   1.402       .  A
C2268      H2277   1.083       .  S
C2269      C2270   1.402       .  A
C2270      H2278   1.084       .  S
C2279      C2280   1.402       .  A
C2279      C2284   1.404       .  A
C2280      C2281   1.395       .  A
C2280      H2293   1.083       .  S
C2281      C2282   1.414       .  A
C2281      H2294   1.077       .  S
C2282      C2288   1.431       .  A
C2282      C2283   1.423       .  A
C2283      C2285   1.400       .  A
C2283      C2284   1.410       .  A
C2284      H2295   1.084       .  S
C2285      C2286   1.392       .  A
C2285      H2296   1.084       .  S
C2286      C2287   1.400       .  A
C2286      H2297   1.084       .  S
C2287      C2288   1.422       .  A
C2287      C2292   1.409       .  A
C2288      C2289   1.414       .  A
C2289      C2290   1.395       .  A
C2289      H2298   1.077       .  S
C2290      C2291   1.401       .  A
C2290      H2299   1.083       .  S
C2291      C2292   1.404       .  A
C2292      H2300   1.084       .  S
C2301      C2302   1.398       .  A
C2301      C2306   1.401       .  A
C2302      C2303   1.396       .  A
C2302      H2315   1.084       .  S
C2303      C2304   1.415       .  A
C2303      H2316   1.077       .  S
C2304      C2310   1.429       .  A
C2304      C2305   1.422       .  A
C2305      C2307   1.400       .  A
C2305      C2306   1.406       .  A
C2306      H2317   1.085       .  S
C2307      C2308   1.391       .  A
C2307      H2318   1.084       .  S
C2308      C2309   1.400       .  A
C2308      H2319   1.084       .  S
C2309      C2310   1.423       .  A
C2309      C2314   1.406       .  A
C2310      C2311   1.415       .  A
C2311      C2312   1.396       .  A
C2311      H2320   1.077       .  S
C2312      C2313   1.398       .  A
C2312      H2321   1.084       .  S
C2313      C2314   1.401       .  A
C2314      H2322   1.084       .  S
C2323      C2324   1.399       .  A
C2323      C2328   1.399       .  A
C2324      C2325   1.398       .  A
C2324      H2337   1.084       .  S
C2325      C2326   1.415       .  A
C2325      H2338   1.078       .  S
C2326      C2332   1.430       .  A
C2326      C2327   1.423       .  A
C2327      C2329   1.399       .  A
C2327      C2328   1.404       .  A
C2328      H2339   1.085       .  S
C2329      C2330   1.390       .  A
C2329      H2340   1.084       .  S
C2330      C2331   1.399       .  A
C2330      H2341   1.084       .  S
C2331      C2332   1.423       .  A
C2331      C2336   1.404       .  A
C2332      C2333   1.416       .  A
C2333      C2334   1.398       .  A
C2333      H2342   1.078       .  S
C2334      C2335   1.399       .  A
C2334      H2343   1.083       .  S
C2335      C2336   1.399       .  A
C2336      H2344   1.085       .  S
C2345      C2346   1.398       .  A
C2345      C2350   1.401       .  A
C2346      C2347   1.394       .  A
C2346      H2359   1.084       .  S
C2347      C2348   1.414       .  A
C2347      H2360   1.078       .  S
C2348      C2354   1.427       .  A
C2348      C2349   1.422       .  A
C2349      C2351   1.400       .  A
C2349      C2350   1.405       .  A
C2350      H2361   1.085       .  S
C2351      C2352   1.391       .  A
C2351      H2362   1.084       .  S
C2352      C2353   1.400       .  A
C2352      H2363   1.084       .  S
C2353      C2354   1.422       .  A
C2353      C2358   1.406       .  A
C2354      C2355   1.415       .  A
C2355      C2356   1.394       .  A
C2355      H2364   1.078       .  S
C2356      C2357   1.397       .  A
C2356      H2365   1.084       .  S
C2357      C2358   1.400       .  A
C2358      H2366   1.085       .  S
C2367      C2368   1.402       .  A
C2367      C2372   1.402       .  A
C2368      C2369   1.399       .  A
C2368      H2381   1.083       .  S
C2369      C2370   1.415       .  A
C2369      H2382   1.077       .  S
C2370      C2376   1.432       .  A
C2370      C2371   1.422       .  A
C2371      C2373   1.399       .  A
C2371      C2372   1.404       .  A
C2372      H2383   1.085       .  S
C2373      C2374   1.388       .  A
C2373      H2384   1.084       .  S
C2374      C2375   1.399       .  A
C2374      H2385   1.084       .  S
C2375      C2376   1.422       .  A
C2375      C2380   1.404       .  A
C2376      C2377   1.415       .  A
C2377      C2378   1.398       .  A
C2377      H2386   1.077       .  S
C2378      C2379   1.401       .  A
C2378      H2387   1.083       .  S
C2379      C2380   1.402       .  A
C2380      H2388   1.084       .  S
C2389      C2390   1.400       .  A
C2389      C2394   1.401       .  A
C2390      C2391   1.397       .  A
C2390      H2403   1.083       .  S
C2391      C2392   1.415       .  A
C2391      H2404   1.077       .  S
C2392      C2398   1.430       .  A
C2392      C2393   1.423       .  A
C2393      C2395   1.399       .  A
C2393      C2394   1.405       .  A
C2394      H2405   1.085       .  S
C2395      C2396   1.390       .  A
C2395      H2406   1.084       .  S
C2396      C2397   1.399       .  A
C2396      H2407   1.084       .  S
C2397      C2398   1.423       .  A
C2397      C2402   1.404       .  A
C2398      C2399   1.416       .  A
C2399      C2400   1.397       .  A
C2399      H2408   1.077       .  S
C2400      C2401   1.398       .  A
C2400      H2409   1.084       .  S
C2401      C2402   1.398       .  A
C2402      H2410   1.085       .  S
C2411      C2412   1.399       .  A
C2411      C2416   1.401       .  A
C2412      C2413   1.396       .  A
C2412      H2425   1.083       .  S
C2413      C2414   1.415       .  A
C2413      H2426   1.078       .  S
C2414      C2420   1.427       .  A
C2414      C2415   1.422       .  A
C2415      C2417   1.400       .  A
C2415      C2416   1.404       .  A
C2416      H2427   1.085       .  S
C2417      C2418   1.390       .  A
C2417      H2428   1.084       .  S
C2418      C2419   1.400       .  A
C2418      H2429   1.084       .  S
C2419      C2420   1.422       .  A
C2419      C2424   1.405       .  A
C2420      C2421   1.415       .  A
C2421      C2422   1.396       .  A
C2421      H2430   1.078       .  S
C2422      C2423   1.398       .  A
C2422      H2431   1.084       .  S
C2423      C2424   1.400       .  A
C2424      H2432   1.085       .  S
C2433      C2434   1.400       .  A
C2433      C2438   1.403       .  A
C2434      C2435   1.397       .  A
C2434      H2447   1.083       .  S
C2435      C2436   1.416       .  A
C2435      H2448   1.077       .  S
C2436      C2442   1.429       .  A
C2436      C2437   1.421       .  A
C2437      C2439   1.400       .  A
C2437      C2438   1.402       .  A
C2438      H2449   1.084       .  S
C2439      C2440   1.389       .  A
C2439      H2450   1.084       .  S
C2440      C2441   1.399       .  A
C2440      H2451   1.084       .  S
C2441      C2442   1.423       .  A
C2441      C2446   1.406       .  A
C2442      C2443   1.413       .  A
C2443      C2444   1.394       .  A
C2443      H2452   1.077       .  S
C2444      C2445   1.401       .  A
C2444      H2453   1.083       .  S
C2445      C2446   1.402       .  A
C2446      H2454   1.084       .  S
C2455      C2456   1.401       .  A
C2455      C2460   1.400       .  A
C2456      C2457   1.399       .  A
C2456      H2469   1.083       .  S
C2457      C2458   1.416       .  A
C2457      H2470   1.078       .  S
C2458      C2464   1.431       .  A
C2458      C2459   1.422       .  A
C2459      C2461   1.399       .  A
C2459      C2460   1.404       .  A
C2460      H2471   1.085       .  S
C2461      C2462   1.389       .  A
C2461      H2472   1.084       .  S
C2462      C2463   1.399       .  A
C2462      H2473   1.084       .  S
C2463      C2464   1.424       .  A
C2463      C2468   1.405       .  A
C2464      C2465   1.416       .  A
C2465      C2466   1.399       .  A
C2465      H2474   1.077       .  S
C2466      C2467   1.398       .  A
C2466      H2475   1.084       .  S
C2467      C2468   1.397       .  A
C2468      H2476   1.085       .  S
C2477      C2478   1.401       .  A
C2477      C2482   1.401       .  A
C2478      C2479   1.394       .  A
C2478      H2491   1.083       .  S
C2479      C2480   1.414       .  A
C2479      H2492   1.077       .  S
C2480      C2486   1.429       .  A
C2480      C2481   1.423       .  A
C2481      C2483   1.399       .  A
C2481      C2482   1.404       .  A
C2482      H2493   1.084       .  S
C2483      C2484   1.389       .  A
C2483      H2494   1.084       .  S
C2484      C2485   1.399       .  A
C2484      H2495   1.084       .  S
C2485      C2486   1.422       .  A
C2485      C2490   1.404       .  A
C2486      C2487   1.415       .  A
C2487      C2488   1.396       .  A
C2487      H2496   1.077       .  S
C2488      C2489   1.401       .  A
C2488      H2497   1.083       .  S
C2489      C2490   1.402       .  A
C2490      H2498   1.084       .  S
C2499      C2500   1.402       .  A
C2499      C2504   1.402       .  A
C2500      C2501   1.398       .  A
C2500      H2513   1.083       .  S
C2501      C2502   1.415       .  A
C2501      H2514   1.078       .  S
C2502      C2508   1.431       .  A
C2502      C2503   1.423       .  A
C2503      C2505   1.399       .  A
C2503      C2504   1.403       .  A
C2504      H2515   1.084       .  S
C2505      C2506   1.388       .  A
C2505      H2516   1.084       .  S
C2506      C2507   1.399       .  A
C2506      H2517   1.084       .  S
C2507      C2508   1.422       .  A
C2507      C2512   1.403       .  A
C2508      C2509   1.416       .  A
C2509      C2510   1.399       .  A
C2509      H2518   1.078       .  S
C2510      C2511   1.401       .  A
C2510      H2519   1.083       .  S
C2511      C2512   1.402       .  A
C2512      H2520   1.084       .  S
C2521      C2522   1.396       .  A
C2521      C2526   1.401       .  A
C2522      C2523   1.393       .  A
C2522      H2535   1.084       .  S
C2523      C2524   1.414       .  A
C2523      H2536   1.078       .  S
C2524      C2530   1.426       .  A
C2524      C2525   1.422       .  A
C2525      C2527   1.400       .  A
C2525      C2526   1.406       .  A
C2526      H2537   1.085       .  S
C2527      C2528   1.392       .  A
C2527      H2538   1.084       .  S
C2528      C2529   1.401       .  A
C2528      H2539   1.084       .  S
C2529      C2530   1.422       .  A
C2529      C2534   1.407       .  A
C2530      C2531   1.413       .  A
C2531      C2532   1.393       .  A
C2531      H2540   1.077       .  S
C2532      C2533   1.398       .  A
C2532      H2541   1.084       .  S
C2533      C2534   1.402       .  A
C2534      H2542   1.084       .  S
C2543      C2544   1.399       .  A
C2543      C2548   1.401       .  A
C2544      C2545   1.397       .  A
C2544      H2557   1.084       .  S
C2545      C2546   1.415       .  A
C2545      H2558   1.078       .  S
C2546      C2552   1.430       .  A
C2546      C2547   1.422       .  A
C2547      C2549   1.400       .  A
C2547      C2548   1.406       .  A
C2548      H2559   1.085       .  S
C2549      C2550   1.391       .  A
C2549      H2560   1.084       .  S
C2550      C2551   1.400       .  A
C2550      H2561   1.084       .  S
C2551      C2552   1.423       .  A
C2551      C2556   1.405       .  A
C2552      C2553   1.415       .  A
C2553      C2554   1.397       .  A
C2553      H2562   1.078       .  S
C2554      C2555   1.398       .  A
C2554      H2563   1.084       .  S
C2555      C2556   1.400       .  A
C2556      H2564   1.085       .  S
C2565      C2566   1.398       .  A
C2565      C2570   1.399       .  A
C2566      C2567   1.396       .  A
C2566      H2579   1.084       .  S
C2567      C2568   1.415       .  A
C2567      H2580   1.078       .  S
C2568      C2574   1.427       .  A
C2568      C2569   1.422       .  A
C2569      C2571   1.400       .  A
C2569      C2570   1.404       .  A
C2570      H2581   1.085       .  S
C2571      C2572   1.390       .  A
C2571      H2582   1.084       .  S
C2572      C2573   1.399       .  A
C2572      H2583   1.084       .  S
C2573      C2574   1.423       .  A
C2573      C2578   1.404       .  A
C2574      C2575   1.414       .  A
C2575      C2576   1.395       .  A
C2575      H2584   1.078       .  S
C2576      C2577   1.399       .  A
C2576      H2585   1.084       .  S
C2577      C2578   1.399       .  A
C2578      H2586   1.085       .  S
C2587      C2588   1.398       .  A
C2587      C2592   1.399       .  A
C2588      C2589   1.398       .  A
C2588      H2601   1.083       .  S
C2589      C2590   1.417       .  A
C2589      H2602   1.078       .  S
C2590      C2596   1.427       .  A
C2590      C2591   1.421       .  A
C2591      C2593   1.399       .  A
C2591      C2592   1.400       .  A
C2592      H2603   1.085       .  S
C2593      C2594   1.388       .  A
C2593      H2604   1.084       .  S
C2594      C2595   1.398       .  A
C2594      H2605   1.084       .  S
C2595      C2596   1.423       .  A
C2595      C2600   1.402       .  A
C2596      C2597   1.414       .  A
C2597      C2598   1.396       .  A
C2597      H2606   1.078       .  S
C2598      C2599   1.399       .  A
C2598      H2607   1.084       .  S
C2599      C2600   1.397       .  A
C2600      H2608   1.085       .  S
C2609      C2610   1.401       .  A
C2609      C2614   1.403       .  A
C2610      C2611   1.397       .  A
C2610      H2623   1.083       .  S
C2611      C2612   1.416       .  A
C2611      H2624   1.077       .  S
C2612      C2618   1.431   1_545  A
C2612      C2613   1.422       .  A
C2613      C2615   1.399       .  A
C2613      C2614   1.404       .  A
C2614      H2625   1.084       .  S
C2615      C2616   1.389   1_545  A
C2615      H2626   1.084       .  S
C2616      C2617   1.399       .  A
C2616      H2627   1.084       .  S
C2617      C2618   1.423       .  A
C2617      C2622   1.406       .  A
C2618      C2619   1.414       .  A
C2619      C2620   1.397       .  A
C2619      H2628   1.077       .  S
C2620      C2621   1.402       .  A
C2620      H2629   1.083       .  S
C2621      C2622   1.402       .  A
C2622      H2630   1.084       .  S
C2631      C2632   1.400       .  A
C2631      C2636   1.401       .  A
C2632      C2633   1.396       .  A
C2632      H2645   1.083       .  S
C2633      C2634   1.414       .  A
C2633      H2646   1.078       .  S
C2634      C2640   1.428       .  A
C2634      C2635   1.422       .  A
C2635      C2637   1.400       .  A
C2635      C2636   1.405       .  A
C2636      H2647   1.085       .  S
C2637      C2638   1.390       .  A
C2637      H2648   1.084       .  S
C2638      C2639   1.400       .  A
C2638      H2649   1.084       .  S
C2639      C2640   1.422       .  A
C2639      C2644   1.404       .  A
C2640      C2641   1.416       .  A
C2641      C2642   1.397       .  A
C2641      H2650   1.078       .  S
C2642      C2643   1.398       .  A
C2642      H2651   1.083       .  S
C2643      C2644   1.400       .  A
C2644      H2652   1.085       .  S
C2653      C2654   1.399       .  A
C2653      C2658   1.401       .  A
C2654      C2655   1.397       .  A
C2654      H2667   1.084       .  S
C2655      C2656   1.415       .  A
C2655      H2668   1.078       .  S
C2656      C2662   1.429       .  A
C2656      C2657   1.422       .  A
C2657      C2659   1.400       .  A
C2657      C2658   1.406       .  A
C2658      H2669   1.085       .  S
C2659      C2660   1.391       .  A
C2659      H2670   1.084       .  S
C2660      C2661   1.400       .  A
C2660      H2671   1.084       .  S
C2661      C2662   1.422       .  A
C2661      C2666   1.406       .  A
C2662      C2663   1.415       .  A
C2663      C2664   1.397       .  A
C2663      H2672   1.078       .  S
C2664      C2665   1.400       .  A
C2664      H2673   1.083       .  S
C2665      C2666   1.401       .  A
C2666      H2674   1.085       .  S
C2675      C2676   1.402       .  A
C2675      C2680   1.401       .  A
C2676      C2677   1.401       .  A
C2676      H2689   1.083       .  S
C2677      C2678   1.416       .  A
C2677      H2690   1.078       .  S
C2678      C2684   1.433   1_655  A
C2678      C2679   1.423       .  A
C2679      C2681   1.398       .  A
C2679      C2680   1.403       .  A
C2680      H2691   1.085       .  S
C2681      C2682   1.387   1_655  A
C2681      H2692   1.084       .  S
C2682      C2683   1.398       .  A
C2682      H2693   1.084       .  S
C2683      C2684   1.422       .  A
C2683      C2688   1.402       .  A
C2684      C2685   1.416       .  A
C2685      C2686   1.401       .  A
C2685      H2694   1.078       .  S
C2686      C2687   1.402       .  A
C2686      H2695   1.083       .  S
C2687      C2688   1.402       .  A
C2688      H2696   1.085       .  S
C2697      C2698   1.399       .  A
C2697      C2702   1.402       .  A
C2698      C2699   1.398       .  A
C2698      H2711   1.084       .  S
C2699      C2700   1.416       .  A
C2699      H2712   1.077       .  S
C2700      C2706   1.432       .  A
C2700      C2701   1.423       .  A
C2701      C2703   1.401       .  A
C2701      C2702   1.410       .  A
C2702      H2713   1.085       .  S
C2703      C2704   1.393       .  A
C2703      H2714   1.084       .  S
C2704      C2705   1.400       .  A
C2704      H2715   1.084       .  S
C2705      C2706   1.423       .  A
C2705      C2710   1.410       .  A
C2706      C2707   1.414       .  A
C2707      C2708   1.397       .  A
C2707      H2716   1.077       .  S
C2708      C2709   1.400       .  A
C2708      H2717   1.084       .  S
C2709      C2710   1.402       .  A
C2710      H2718   1.084       .  S
C2719      C2720   1.398       .  A
C2719      C2724   1.401       .  A
C2720      C2721   1.392       .  A
C2720      H2733   1.084       .  S
C2721      C2722   1.413       .  A
C2721      H2734   1.077       .  S
C2722      C2728   1.428       .  A
C2722      C2723   1.423       .  A
C2723      C2725   1.401       .  A
C2723      C2724   1.409       .  A
C2724      H2735   1.084       .  S
C2725      C2726   1.393       .  A
C2725      H2736   1.084       .  S
C2726      C2727   1.401       .  A
C2726      H2737   1.084       .  S
C2727      C2728   1.422       .  A
C2727      C2732   1.408       .  A
C2728      C2729   1.414       .  A
C2729      C2730   1.393       .  A
C2729      H2738   1.077       .  S
C2730      C2731   1.399       .  A
C2730      H2739   1.083       .  S
C2731      C2732   1.402       .  A
C2732      H2740   1.084       .  S
C2741      C2742   1.402       .  A
C2741      C2746   1.403       .  A
C2742      C2743   1.399       .  A
C2742      H2755   1.082       .  S
C2743      C2744   1.415       .  A
C2743      H2756   1.080       .  S
C2744      C2750   1.433   1_655  A
C2744      C2745   1.423       .  A
C2745      C2747   1.399       .  A
C2745      C2746   1.405       .  A
C2746      H2757   1.085       .  S
C2747      C2748   1.390   1_655  A
C2747      H2758   1.084       .  S
C2748      C2749   1.400       .  A
C2748      H2759   1.084       .  S
C2749      C2750   1.423       .  A
C2749      C2754   1.406       .  A
C2750      C2751   1.415       .  A
C2751      C2752   1.399       .  A
C2751      H2760   1.080       .  S
C2752      C2753   1.402       .  A
C2752      H2761   1.082       .  S
C2753      C2754   1.404       .  A
C2754      H2762   1.085       .  S
C2763      C2764   1.401       .  A
C2763      C2768   1.402       .  A
C2764      C2765   1.396       .  A
C2764      H2777   1.083       .  S
C2765      C2766   1.415       .  A
C2765      H2778   1.077       .  S
C2766      C2772   1.430   1_545  A
C2766      C2767   1.422       .  A
C2767      C2769   1.399       .  A
C2767      C2768   1.405       .  A
C2768      H2779   1.084       .  S
C2769      C2770   1.389   1_545  A
C2769      H2780   1.084       .  S
C2770      C2771   1.399       .  A
C2770      H2781   1.084       .  S
C2771      C2772   1.423       .  A
C2771      C2776   1.406       .  A
C2772      C2773   1.414       .  A
C2773      C2774   1.395       .  A
C2773      H2782   1.077       .  S
C2774      C2775   1.402       .  A
C2774      H2783   1.083       .  S
C2775      C2776   1.402       .  A
C2776      H2784   1.084       .  S
