geometry optimzed in LAMMPS
_audit_creation_date              2020-12-01 
_audit_creation_method            'lammps2cif' 
_symmetry_space_group_name_H-M    'P1' 
_symmetry_Int_Tables_number       1 
_symmetry_cell_setting            triclinic 
loop_ 
_symmetry_equiv_pos_as_xyz 
  x,y,z 
_cell_length_a                    30.3765159 
_cell_length_b                    28.014652752386528 
_cell_length_c                    28.44076766194178 
_cell_angle_alpha                 91.24482695281027 
_cell_angle_beta                  90.12322756033412 
_cell_angle_gamma                 90.94443586613833 
loop_ 
_atom_site_label 
_atom_site_type_symbol 
_atom_site_fract_x 
_atom_site_fract_y 
_atom_site_fract_z 
_atom_site_charge 
O1          O  0.67612207  0.80736419  0.67482948    -0.81600
O2          O  0.83999377  0.73124536  0.76952285    -0.66300
O3          O  0.72468723  0.73613936  0.71452094    -1.12900
C4          C  0.67250956  0.78988176  0.85548013     1.05300
O5          O  0.81957493  0.72180873  0.84404693    -0.79500
O6          O  0.73781283  0.68466930  0.82787816    -0.67100
Ni7        Ni  0.71562010  0.75939682  0.65352486     1.34900
C8          C  0.69902987  0.67693855  0.81226780     0.84000
O9          O  0.80525470  0.70214426  0.68689532    -0.80100
O10         O  0.75495746  0.71350157  0.62951783    -0.90300
C11         C  0.84840749  0.72007933  0.81181516     0.83600
O12         O  0.76042855  0.80707035  0.65295204    -0.68500
O13         O  0.70228981  0.76306603  0.87106500    -0.87800
C14         C  0.79047464  0.82060107  0.68129860     0.84400
C15         C  0.79023696  0.69566716  0.64516846     1.06000
H16         H  0.76683351  0.80278301  0.79377782     0.37800
O17         O  0.75564628  0.77031586  0.79183603    -1.10500
O18         O  0.67781891  0.70926442  0.79097344    -0.67100
Ni19       Ni  0.69737076  0.77002374  0.76383944     1.26300
O20         O  0.80189513  0.79634759  0.71643130    -0.67400
O21         O  0.67215463  0.80432562  0.81382306    -0.79700
C22         C  0.63990783  0.79667567  0.69398066     0.83800
O23         O  0.64087305  0.77261692  0.73143494    -0.66800
Ni24       Ni  0.76016043  0.74357252  0.85242981     1.27400
Ni25       Ni  0.78241147  0.73562152  0.74053010     1.26100
H26         H  0.71361130  0.70360709  0.71389231     0.38300
C27         C  0.90359626  0.38113104  0.49114442    -0.03200
C28         C  0.09609204  0.38490260  0.51130673    -0.03200
C29         C  0.88392176  0.59132191  0.49813987    -0.03200
C30         C  0.07944199  0.59973618  0.51180142    -0.03200
C31         C  0.41473737  0.49965384  0.89069841    -0.03200
C32         C  0.42159892  0.50421160  0.10605454    -0.03200
C33         C  0.61753300  0.49757863  0.88222583    -0.03200
C34         C  0.62046073  0.51572047  0.09539537    -0.03200
C35         C  0.48535160  0.88600397  0.38352280    -0.03200
C36         C  0.48470167  0.10521257  0.39100119    -0.03200
C37         C  0.48546666  0.87945126  0.59549315    -0.03200
C38         C  0.49696730  0.09347005  0.60149656    -0.03200
O39         O  0.31460400  0.17899870  0.68141972    -0.81600
O40         O  0.16382266  0.27416608  0.78536455    -0.66300
O41         O  0.27165589  0.25754332  0.71932378    -1.12900
C42         C  0.32420327  0.20228971  0.86360066     1.05300
O43         O  0.19923877  0.30703551  0.84654295    -0.79500
O44         O  0.28750033  0.31543582  0.85250625    -0.67100
Ni45       Ni  0.27533629  0.22679978  0.66003226     1.34900
C46         C  0.31857406  0.32247863  0.82355998     0.84000
O47         O  0.19050632  0.29234797  0.69649660    -0.80100
O48         O  0.23575421  0.27242708  0.63613747    -0.90300
C49         C  0.16416586  0.30064640  0.82246059     0.83600
O50         O  0.22800592  0.18208039  0.66371415    -0.68500
O51         O  0.29207634  0.22368224  0.88311402    -0.87800
C52         C  0.19485083  0.17619731  0.68992394     0.84400
C53         C  0.20206322  0.29329313  0.65323789     1.06000
H54         H  0.23567993  0.20254266  0.80414630     0.37800
O55         O  0.24713452  0.23466869  0.80075444    -1.10500
O56         O  0.32681344  0.29322772  0.78944767    -0.67100
Ni57       Ni  0.30270088  0.23021234  0.76927485     1.26300
O58         O  0.18952341  0.20149429  0.72775499    -0.67400
O59         O  0.33207489  0.20184756  0.81989762    -0.79700
C60         C  0.35170361  0.18953224  0.69956018     0.83800
O61         O  0.35476128  0.22091295  0.73241783    -0.66800
Ni62       Ni  0.24596658  0.26430241  0.86175091     1.27400
Ni63       Ni  0.21656648  0.26316838  0.74967235     1.26100
H64         H  0.28310697  0.28957279  0.71528294     0.38300
O65         O  0.22390527  0.84978808  0.31061548    -0.81600
O66         O  0.32252273  0.69246503  0.21533029    -0.66300
O67         O  0.22933253  0.77853989  0.24248585    -1.12900
C68         C  0.18157334  0.66849630  0.34972885     1.05300
O69         O  0.27755604  0.62889541  0.21734638    -0.79500
O70         O  0.19216382  0.65497289  0.22136588    -0.67100
Ni71       Ni  0.23943049  0.84502350  0.24584838     1.34900
C72         C  0.16020759  0.68297158  0.22749896     0.84000
O73         O  0.29874537  0.77677695  0.18061477    -0.80100
O74         O  0.25728316  0.84273397  0.18218720    -0.90300
C75         C  0.31294391  0.64923125  0.20356865     0.83600
O76         O  0.29933059  0.84672046  0.26470913    -0.68500
O77         O  0.19194576  0.63970737  0.31641339    -0.87800
C78         C  0.32389588  0.81587518  0.28226491     0.84400
C79         C  0.28803925  0.81738908  0.16510515     1.06000
H80         H  0.27462619  0.70137503  0.30570373     0.37800
O81         O  0.25352520  0.70208178  0.28025894    -1.10500
O82         O  0.16105892  0.71693632  0.25860933    -0.67100
Ni83       Ni  0.20901720  0.74704591  0.29642976     1.26300
O84         O  0.31686396  0.77105193  0.27486614    -0.67400
O85         O  0.19116282  0.71276671  0.34956368    -0.79700
C86         C  0.18581802  0.83893809  0.32483253     0.83800
O87         O  0.16946192  0.79768478  0.31450661    -0.66800
Ni88       Ni  0.23507470  0.63836261  0.26681539     1.27400
Ni89       Ni  0.27718339  0.73805952  0.22991309     1.26100
H90         H  0.20823471  0.77314916  0.21739490     0.38300
O91         O  0.68113847  0.31589907  0.19010003    -0.81600
O92         O  0.76333172  0.14575636  0.28211865    -0.66300
O93         O  0.71217068  0.26808720  0.26448599    -1.12900
C94         C  0.85098567  0.30070963  0.18928229     1.05300
O95         O  0.82064632  0.18834525  0.30698400    -0.79500
O96         O  0.84903827  0.27578056  0.29405932    -0.67100
Ni97       Ni  0.65679554  0.27622481  0.23718060     1.34900
C98         C  0.82455592  0.30763288  0.31154911     0.84000
O99         O  0.67998324  0.17995009  0.30002948    -0.80100
O100        O  0.62998719  0.23537981  0.28188154    -0.90300
C101        C  0.80059185  0.14857384  0.30310991     0.83600
O102        O  0.65774740  0.22567043  0.19189039    -0.68500
O103        O  0.86173673  0.25882746  0.20171042    -0.87800
C104        C  0.68294088  0.19106379  0.18322268     0.84400
C105        C  0.64018438  0.19554249  0.29942697     1.06000
H106        H  0.78126136  0.22044840  0.20458911     0.37800
O107        O  0.78268967  0.23285677  0.23651613    -1.10500
O108        O  0.78697728  0.31721653  0.29377625    -0.67100
Ni109      Ni  0.76226448  0.29582096  0.23296737     1.26300
O110        O  0.71341723  0.17886210  0.21096262    -0.67400
O111        O  0.81466393  0.32041548  0.20136691    -0.79700
C112        C  0.70084906  0.35541178  0.19785753     0.83800
O113        O  0.73446554  0.35666292  0.22491156    -0.66800
Ni114      Ni  0.84057628  0.22236293  0.25371247     1.27400
Ni115      Ni  0.73379411  0.20518591  0.27061301     1.26100
H116        H  0.71061480  0.28210391  0.29576443     0.38300
O117        O  0.79174032  0.25473185  0.64346838    -0.81600
O118        O  0.72290747  0.16094326  0.81057168    -0.66300
O119        O  0.73294576  0.25120041  0.71373721    -1.12900
C120        C  0.84708129  0.31484993  0.81350781     1.05300
O121        O  0.71832483  0.22419465  0.85835428    -0.79500
O122        O  0.73432695  0.31355053  0.84119946    -0.67100
Ni123      Ni  0.73322013  0.23226501  0.65031567     1.34900
C124        C  0.72542939  0.33894162  0.80629578     0.84000
O125        O  0.67848806  0.17019221  0.72630729    -0.80100
O126        O  0.67532752  0.20671839  0.65619319    -0.90300
C127        C  0.71405414  0.17978669  0.85049207     0.83600
O128        O  0.75621008  0.17039032  0.65480973    -0.68500
O129        O  0.82401772  0.29719987  0.84646588    -0.87800
C130        C  0.77527191  0.14812473  0.68705868     0.84400
C131        C  0.66008923  0.17754468  0.68612741     1.06000
H132        H  0.80172309  0.21869656  0.78715134     0.37800
O133        O  0.77606850  0.23864087  0.78786114    -1.10500
O134        O  0.74389503  0.33267440  0.76613007    -0.67100
Ni135      Ni  0.78362019  0.28398420  0.74001115     1.26300
O136        O  0.77055776  0.16018313  0.73022234    -0.67400
O137        O  0.83485959  0.31436895  0.77016624    -0.79700
C138        C  0.80093825  0.29860653  0.64666917     0.83800
O139        O  0.79281426  0.32177919  0.68488790    -0.66800
Ni140      Ni  0.77082387  0.26019606  0.85072455     1.27400
Ni141      Ni  0.72782906  0.20341866  0.75899510     1.26100
H142        H  0.70770653  0.27144783  0.71759524     0.38300
C143        C  0.58547864  0.88518166  0.00502313    -0.03200
C144        C  0.62715900  0.09208334  0.00894098    -0.03200
C145        C  0.39417539  0.90052040  0.01718747    -0.03200
C146        C  0.43039038  0.11219381  0.00504309    -0.03200
O147        O  0.27769549  0.64662522  0.79956508    -0.81600
O148        O  0.17262233  0.81589892  0.70999707    -0.66300
O149        O  0.25617103  0.71615569  0.73277988    -1.12900
C150        C  0.30776152  0.83193957  0.84434264     1.05300
O151        O  0.22931444  0.86453495  0.70414535    -0.79500
O152        O  0.31086964  0.85561744  0.73618118    -0.67100
Ni153      Ni  0.23844670  0.65264008  0.74619120     1.34900
C154        C  0.33394373  0.82218821  0.71938329     0.84000
O155        O  0.18536481  0.72821674  0.67257068    -0.80100
O156        O  0.19923190  0.65228098  0.69282324    -0.90300
C157        C  0.18892052  0.85583036  0.69682110     0.83600
O158        O  0.19112024  0.66666048  0.78838224    -0.68500
O159        O  0.28044765  0.85975924  0.82566093    -0.87800
C160        C  0.16296465  0.69965640  0.78938386     0.84400
C161        C  0.18210410  0.68329882  0.66632665     1.06000
H162        H  0.22314083  0.79338431  0.79995751     0.37800
O163        O  0.24143814  0.79553526  0.77232127    -1.10500
O164        O  0.32660768  0.77862104  0.73068321    -0.67100
Ni165      Ni  0.28820448  0.75152697  0.77980505     1.26300
O166        O  0.16716644  0.73769960  0.76537869    -0.67400
O167        O  0.31716087  0.79037874  0.82774597    -0.79700
C168        C  0.31791394  0.65987108  0.80352481     0.83800
O169        O  0.33070961  0.70094919  0.78918844    -0.66800
Ni170      Ni  0.25478617  0.86067291  0.76535265     1.27400
Ni171      Ni  0.21200427  0.76326613  0.72238917     1.26100
H172        H  0.27399783  0.71417571  0.70471638     0.38300
C173        C  0.88301941  0.98840938  0.60918424    -0.03200
C174        C  0.08277107  0.01203230  0.61598143    -0.03200
C175        C  0.88771903  0.99125983  0.39873280    -0.03200
C176        C  0.08599551  0.00295030  0.40150484    -0.03200
O177        O  0.83348952  0.72253265  0.15490996    -0.81600
O178        O  0.65645354  0.78834911  0.26262472    -0.66300
O179        O  0.77362284  0.77378914  0.21195588    -1.12900
C180        C  0.80549377  0.70067763  0.34982082     1.05300
O181        O  0.67741958  0.79934764  0.33664534    -0.79500
O182        O  0.76340839  0.82177094  0.32617520    -0.67100
Ni183      Ni  0.77934098  0.75555708  0.14717078     1.34900
C184        C  0.80286031  0.82117362  0.31176361     0.84000
O185        O  0.69860317  0.82410661  0.19144295    -0.80100
O186        O  0.72749377  0.78761536  0.12880656    -0.90300
C187        C  0.64917670  0.80363113  0.30426731     0.83600
O188        O  0.74687442  0.69846245  0.15657127    -0.68500
O189        O  0.78409394  0.73616148  0.36521887    -0.87800
C190        C  0.70794161  0.69332788  0.17228364     0.84400
C191        C  0.70164385  0.81715267  0.14794749     1.06000
H192        H  0.71680483  0.70896442  0.28260947     0.37800
O193        O  0.73336549  0.73873295  0.28367207    -1.10500
O194        O  0.81952314  0.78406032  0.29229224    -0.67100
Ni195      Ni  0.79143085  0.72991992  0.25850815     1.26300
O196        O  0.69034742  0.72514180  0.19928366    -0.67400
O197        O  0.80613036  0.68802527  0.30681808    -0.79700
C198        C  0.85867986  0.71133873  0.18829401     0.83800
O199        O  0.84845187  0.71745958  0.23137101    -0.66800
Ni200      Ni  0.73150184  0.76662937  0.34568262     1.27400
Ni201      Ni  0.71467292  0.78019457  0.23639958     1.26100
H202        H  0.78928914  0.80373139  0.21595838     0.38300
C203        C  0.00540424  0.62473610  0.89143856    -0.03200
C204        C  0.01262178  0.61215389  0.10633972    -0.03200
C205        C  0.00810441  0.40618808  0.89450090    -0.03200
C206        C  0.00865600  0.39280287  0.10812170    -0.03200
O207        O  0.28420534  0.36356948  0.20954922    -0.81600
O208        O  0.16551775  0.19174432  0.27470505    -0.66300
O209        O  0.25633412  0.28895394  0.26948144    -1.12900
C210        C  0.31709957  0.18415886  0.15537060     1.05300
O211        O  0.21549929  0.13489874  0.27781188    -0.79500
O212        O  0.30298162  0.14893000  0.26535953    -0.67100
Ni213      Ni  0.24324954  0.35440970  0.26126643     1.34900
C214        C  0.32919204  0.18035784  0.28267092     0.84000
O215        O  0.17842524  0.27520302  0.32046844    -0.80100
O216        O  0.20226361  0.35113483  0.31309935    -0.90300
C217        C  0.17701053  0.15002813  0.28657298     0.83600
O218        O  0.19602759  0.34863787  0.21649986    -0.68500
O219        O  0.29077738  0.15202030  0.17053139    -0.87800
C220        C  0.16813321  0.31574923  0.20640369     0.84400
C221        C  0.17869287  0.31910124  0.33307205     1.06000
H222        H  0.22644252  0.21724009  0.19288421     0.37800
O223        O  0.24198713  0.21288722  0.22212111    -1.10500
O224        O  0.32639171  0.22468181  0.27116784    -0.67100
Ni225      Ni  0.29060660  0.25745126  0.22260457     1.26300
O226        O  0.17025134  0.27401857  0.22443225    -0.67400
O227        O  0.32196577  0.22531972  0.17428999    -0.79700
C228        C  0.32349847  0.34892767  0.20417746     0.83800
O229        O  0.33466454  0.30813167  0.21922358    -0.66800
Ni230      Ni  0.25312903  0.14652501  0.22429020     1.27400
Ni231      Ni  0.20877057  0.24309630  0.27078120     1.26100
H232        H  0.27182316  0.28723434  0.29909091     0.38300
C233        C  0.12943618  0.32886243  0.17549059    -0.06900
C234        C  0.08748601  0.31350018  0.18865695    -0.18000
C235        C  0.04837946  0.33123432  0.16885644     0.10300
C236        C  0.04977748  0.36726783  0.13264676    -0.06800
C237        C  0.09309456  0.38021960  0.11796000    -0.18000
C238        C  0.13191477  0.36195318  0.13843714     0.10400
S239        S  0.99969197  0.30593118  0.19569207    -0.33000
S240        S  0.18385245  0.38227168  0.11508166    -0.33000
H241        H  0.20642519  0.33999785  0.12424750     0.28400
H242        H  0.01642003  0.25995996  0.20222302     0.28400
H243        H  0.08513930  0.28891043  0.21748283     0.19000
H244        H  0.09678408  0.40603331  0.09036163     0.19000
C245        C  0.00692944  0.38374613  0.05185166    -0.06900
C246        C  0.96836104  0.39632946  0.02710295    -0.18000
C247        C  0.96505850  0.39855807  0.97799458     0.10300
C248        C  0.00368863  0.39242889  0.94934711    -0.06800
C249        C  0.03695515  0.36648149  0.97292983    -0.18000
C250        C  0.03789517  0.35997489  0.02223008     0.10400
S251        S  0.90773312  0.40071126  0.95835652    -0.33000
S252        S  0.07031416  0.31013657  0.04021159    -0.33000
H253        H  0.03866693  0.29300330  0.07192764     0.28400
H254        H  0.91003697  0.42451480  0.91582696     0.28400
H255        H  0.93795173  0.40033194  0.04599052     0.19000
H256        H  0.06105043  0.34692054  0.95307663     0.19000
C257        C  0.01020839  0.45028191  0.11445210    -0.06900
C258        C  0.97499784  0.47697525  0.09598805    -0.18000
C259        C  0.97582239  0.52695595  0.09069109     0.10300
C260        C  0.01145895  0.55532330  0.10892545    -0.06800
C261        C  0.04551882  0.52935609  0.13055539    -0.18000
C262        C  0.04336198  0.47943162  0.13765320     0.10400
S263        S  0.92769512  0.55335530  0.06506792    -0.33000
S264        S  0.07638113  0.45901096  0.18622570    -0.33000
H265        H  0.08675327  0.50395690  0.20683424     0.28400
H266        H  0.91003985  0.51140139  0.04382249     0.28400
H267        H  0.94416333  0.45937564  0.08872813     0.19000
H268        H  0.07452833  0.54784446  0.14362988     0.19000
C269        C  0.00538042  0.56811656  0.88802669    -0.06900
C270        C  0.03879559  0.54224258  0.86451387    -0.18000
C271        C  0.03952859  0.49170763  0.86167571     0.10300
C272        C  0.00993028  0.46321966  0.88986620    -0.06800
C273        C  0.97957872  0.49037096  0.91618625    -0.18000
C274        C  0.97489051  0.53980707  0.91375969     0.10400
S275        S  0.07732624  0.46984614  0.81728437    -0.33000
S276        S  0.92688604  0.56430579  0.94254224    -0.33000
H277        H  0.90117345  0.52205710  0.94286085     0.28400
H278        H  0.04962518  0.43413597  0.79798448     0.28400
H279        H  0.06464861  0.56093042  0.84628979     0.19000
H280        H  0.95845909  0.47413417  0.94053039     0.19000
C281        C  0.01373025  0.62253506  0.05097723    -0.06900
C282        C  0.97920979  0.64659815  0.02817310    -0.18000
C283        C  0.97711133  0.65440903  0.97906612     0.10300
C284        C  0.00916196  0.63393702  0.94767633    -0.06800
C285        C  0.04473404  0.61155210  0.97084906    -0.18000
C286        C  0.04747972  0.60558279  0.02027295     0.10400
S287        S  0.92848643  0.68530843  0.96056492    -0.33000
S288        S  0.09517280  0.57578224  0.04290123    -0.33000
H289        H  0.12000067  0.57492039  0.00122655     0.28400
H290        H  0.92258781  0.71254390  0.00220463     0.28400
H291        H  0.95073314  0.65691143  0.04802599     0.19000
H292        H  0.07010522  0.59591385  0.94910180     0.19000
C293        C  0.97186910  0.63618111  0.13237738    -0.06900
C294        C  0.96780080  0.68637192  0.12812536    -0.18000
C295        C  0.93283980  0.71212330  0.14774279     0.10300
C296        C  0.90086397  0.68864136  0.17490158    -0.06800
C297        C  0.90644187  0.64037180  0.18405108    -0.18000
C298        C  0.94185628  0.61424724  0.16516023     0.10400
S299        S  0.93079882  0.77517415  0.13656576    -0.33000
S300        S  0.94918275  0.55642929  0.19075646    -0.33000
H301        H  0.90446878  0.54682520  0.20012462     0.28400
H302        H  0.90689881  0.78781339  0.17713262     0.28400
H303        H  0.99170708  0.70587126  0.10758569     0.19000
H304        H  0.88275522  0.62301361  0.20671779     0.19000
C305        C  0.10804821  0.04595095  0.37331160    -0.06900
C306        C  0.10558127  0.04411284  0.32341031    -0.18000
C307        C  0.12373891  0.07973271  0.29466788     0.10300
C308        C  0.14736536  0.11871478  0.31485236    -0.06800
C309        C  0.15243504  0.12036235  0.36366144    -0.18000
C310        C  0.13549933  0.08425291  0.39284701     0.10400
S311        S  0.11772435  0.07195862  0.23189318    -0.33000
S312        S  0.15901471  0.08521917  0.45151524    -0.33000
H313        H  0.16931134  0.13434189  0.45478991     0.28400
H314        H  0.12070467  0.12074899  0.22150875     0.28400
H315        H  0.09053597  0.01320281  0.30598310     0.19000
H316        H  0.17382279  0.14811672  0.37854978     0.19000
C317        C  0.87094892  0.94458754  0.37051847    -0.06900
C318        C  0.84132257  0.94882127  0.33187236    -0.18000
C319        C  0.81915924  0.90970659  0.31106510     0.10300
C320        C  0.83089820  0.86338868  0.32305102    -0.06800
C321        C  0.86596522  0.85771998  0.35383757    -0.18000
C322        C  0.88497090  0.89658909  0.37906810     0.10400
S323        S  0.77540159  0.92177004  0.27020102    -0.33000
S324        S  0.92343393  0.88023350  0.42407390    -0.33000
H325        H  0.93638439  0.83640370  0.40383082     0.28400
H326        H  0.77837910  0.87882401  0.24441392     0.28400
H327        H  0.83367656  0.98276433  0.31717723     0.19000
H328        H  0.87586283  0.82182588  0.36128043     0.19000
C329        C  0.93964592  0.99252451  0.39439779    -0.06900
C330        C  0.96535003  0.97750599  0.43270766    -0.18000
C331        C  0.01008899  0.97066116  0.42895855     0.10300
C332        C  0.03470172  0.99701798  0.39550419    -0.06800
C333        C  0.00960380  0.01412463  0.35721624    -0.18000
C334        C  0.96401236  0.00299610  0.35308274     0.10400
S335        S  0.03164032  0.92068846  0.46069060    -0.33000
S336        S  0.93892533  0.00042115  0.29530426    -0.33000
H337        H  0.97814646  0.00606722  0.26965847     0.28400
H338        H  0.00154153  0.92190208  0.49810765     0.28400
H339        H  0.95036124  0.96349943  0.46384406     0.19000
H340        H  0.02480094  0.03161502  0.32823040     0.19000
C341        C  0.08829969  0.00857950  0.56002636    -0.06900
C342        C  0.06821086  0.04451239  0.53339768    -0.18000
C343        C  0.06853958  0.04554320  0.48392029     0.10300
C344        C  0.09189650  0.01014469  0.45696964    -0.06800
C345        C  0.11408471  0.97580915  0.48391558    -0.18000
C346        C  0.10834394  0.97121690  0.53285224     0.10400
S347        S  0.03654728  0.09348174  0.45989886    -0.33000
S348        S  0.11516039  0.91095938  0.55358893    -0.33000
H349        H  0.14770277  0.89661746  0.52135251     0.28400
H350        H  0.04648162  0.08976740  0.41227364     0.28400
H351        H  0.05104198  0.07267692  0.55195043     0.19000
H352        H  0.12928010  0.94612716  0.46644666     0.19000
C353        C  0.87964811  0.98443197  0.55398492    -0.06900
C354        C  0.89556277  0.02535395  0.53101458    -0.18000
C355        C  0.89367383  0.03078831  0.48249889     0.10300
C356        C  0.87718052  0.99271062  0.45282844    -0.06800
C357        C  0.85837872  0.95303793  0.47529539    -0.18000
C358        C  0.86159305  0.94653123  0.52429238     0.10400
S359        S  0.91624442  0.08610002  0.46023490    -0.33000
S360        S  0.84528919  0.88773046  0.54417057    -0.33000
H361        H  0.83470666  0.86575577  0.50058794     0.28400
H362        H  0.93289305  0.10629230  0.50247386     0.28400
H363        H  0.90837655  0.05490051  0.55219090     0.19000
H364        H  0.84283258  0.92533969  0.45399443     0.19000
C365        C  0.93488407  0.99359642  0.61746307    -0.06900
C366        C  0.95480700  0.03783028  0.63163015    -0.18000
C367        C  0.00107891  0.04612706  0.63321787     0.10300
C368        C  0.03072519  0.00860818  0.62103687    -0.06800
C369        C  0.01054031  0.96591458  0.60355682    -0.18000
C370        C  0.96474577  0.95732782  0.60290014     0.10400
S371        S  0.01902280  0.10743664  0.64313257    -0.33000
S372        S  0.94619118  0.89874455  0.58296491    -0.33000
H373        H  0.98719752  0.87617565  0.58159928     0.28400
H374        H  0.97955732  0.12529924  0.66172231     0.28400
H375        H  0.93419489  0.06817470  0.63776994     0.19000
H376        H  0.03165641  0.93785432  0.59092203     0.19000
C377        C  0.16166512  0.89376148  0.67479858    -0.06900
C378        C  0.11684063  0.89593071  0.68541976    -0.18000
C379        C  0.09022742  0.93387170  0.67103258     0.10300
C380        C  0.10805300  0.97060015  0.64137417    -0.06800
C381        C  0.15418103  0.96937141  0.63400887    -0.18000
C382        C  0.18037836  0.93164861  0.64875577     0.10400
S383        S  0.03703627  0.93585203  0.69904684    -0.33000
S384        S  0.23702673  0.93311433  0.62986432    -0.33000
H385        H  0.23779010  0.88420570  0.61754300     0.28400
H386        H  0.03206356  0.88666605  0.70704345     0.28400
H387        H  0.10310356  0.86897653  0.70809524     0.19000
H388        H  0.16973576  0.99666955  0.61302657     0.19000
C389        C  0.12127501  0.68946952  0.81568414    -0.06900
C390        C  0.08808157  0.66445708  0.79117338    -0.18000
C391        C  0.05137240  0.64392563  0.81383731     0.10300
C392        C  0.04656817  0.64755840  0.86419761    -0.06800
C393        C  0.07939033  0.67598724  0.88797865    -0.18000
C394        C  0.11640747  0.69580571  0.86472050     0.10400
S395        S  0.01320155  0.61073193  0.77630998    -0.33000
S396        S  0.15682566  0.72830263  0.89974527    -0.33000
H397        H  0.17209780  0.75745421  0.86342145     0.28400
H398        H  0.02882927  0.62606645  0.73252882     0.28400
H399        H  0.09223215  0.65899785  0.75362747     0.19000
H400        H  0.07685983  0.68360823  0.92520328     0.19000
C401        C  0.34398583  0.17289541  0.11395094    -0.06900
C402        C  0.38700435  0.19142199  0.11115629    -0.18000
C403        C  0.41575532  0.17737684  0.07493622     0.10300
C404        C  0.40233061  0.13940996  0.04311136    -0.06800
C405        C  0.35700589  0.12583245  0.04429112    -0.18000
C406        C  0.32802631  0.14280530  0.07778089     0.10400
S407        S  0.46753818  0.21003364  0.07220656    -0.33000
S408        S  0.27090733  0.12474622  0.07176428    -0.33000
H409        H  0.25421687  0.16840751  0.08872753     0.28400
H410        H  0.45614350  0.24889573  0.10163798     0.28400
H411        H  0.39843570  0.21655093  0.13814262     0.19000
H412        H  0.34367642  0.09911054  0.02025880     0.19000
C413        C  0.32842147  0.84927934  0.88811916    -0.06900
C414        C  0.34000856  0.81633655  0.92194304    -0.18000
C415        C  0.35994779  0.83114521  0.96433272     0.10300
C416        C  0.36720584  0.88121531  0.97395817    -0.06800
C417        C  0.34869722  0.91332824  0.94211955    -0.18000
C418        C  0.33346959  0.89850664  0.89835008     0.10400
S419        S  0.38071279  0.78470582  0.00126115    -0.33000
S420        S  0.32480361  0.94499497  0.85634592    -0.33000
H421        H  0.34452208  0.91977942  0.81878346     0.28400
H422        H  0.36282424  0.74495275  0.97644810     0.28400
H423        H  0.33478754  0.77867025  0.91427930     0.19000
H424        H  0.34752304  0.95116497  0.94955200     0.19000
C425        C  0.40171000  0.95606447  0.01768571    -0.06900
C426        C  0.42120403  0.97471822  0.97696229    -0.18000
C427        C  0.42939964  0.02311508  0.97059720     0.10300
C428        C  0.42189564  0.05656758  0.00830492    -0.06800
C429        C  0.40760651  0.03692520  0.05129265    -0.18000
C430        C  0.39816581  0.98826319  0.05705111     0.10400
S431        S  0.44777411  0.03788650  0.91216957    -0.33000
S432        S  0.38574580  0.97043945  0.11659384    -0.33000
H433        H  0.40479934  0.01016316  0.14051921     0.28400
H434        H  0.42267308  0.00224473  0.88824730     0.28400
H435        H  0.42943941  0.95053756  0.94836957     0.19000
H436        H  0.40334881  0.05985371  0.08172181     0.19000
C437        C  0.57627204  0.10447114  0.00733411    -0.06900
C438        C  0.55277598  0.11301284  0.04963299    -0.18000
C439        C  0.50646636  0.11156032  0.05123721     0.10300
C440        C  0.48170748  0.11673225  0.00887574    -0.06800
C441        C  0.50599377  0.11309711  0.96688746    -0.18000
C442        C  0.54987910  0.09908131  0.96592256     0.10400
S443        S  0.48151003  0.09987181  0.10779757    -0.33000
S444        S  0.56923222  0.07203726  0.91151692    -0.33000
H445        H  0.53574835  0.08766581  0.88162233     0.28400
H446        H  0.52013345  0.09675134  0.13481526     0.28400
H447        H  0.57020310  0.11405722  0.08271212     0.19000
H448        H  0.48958610  0.11684354  0.93372127     0.19000
C449        C  0.61739200  0.86889082  0.04390947    -0.06900
C450        C  0.60112236  0.84016902  0.08049435    -0.18000
C451        C  0.62704369  0.82852216  0.11844427     0.10300
C452        C  0.67171385  0.84098570  0.11779990    -0.06800
C453        C  0.68980230  0.86530845  0.08042671    -0.18000
C454        C  0.66412477  0.87667191  0.04207423     0.10400
S455        S  0.60338190  0.79410491  0.16532719    -0.33000
S456        S  0.69508243  0.88622187  0.98887820    -0.33000
H457        H  0.73201330  0.90846738  0.01046133     0.28400
H458        H  0.55896329  0.80131739  0.15375379     0.28400
H459        H  0.56806762  0.82561267  0.07956906     0.19000
H460        H  0.72526356  0.87021947  0.07897303     0.19000
C461        C  0.53589363  0.87495993  0.01755635    -0.06900
C462        C  0.50910590  0.85010592  0.98410702    -0.18000
C463        C  0.46500433  0.86055058  0.97878005     0.10300
C464        C  0.44245942  0.88263771  0.01713952    -0.06800
C465        C  0.46792763  0.89512926  0.05738357    -0.18000
C466        C  0.51353505  0.89227063  0.05876416     0.10400
S467        S  0.44590941  0.85627876  0.91824957    -0.33000
S468        S  0.53693611  0.91601398  0.11388035    -0.33000
H469        H  0.58028600  0.92672869  0.10136032     0.28400
H470        H  0.47144814  0.81727965  0.90354075     0.28400
H471        H  0.52305251  0.82906948  0.95606614     0.19000
H472        H  0.45211330  0.91121903  0.08758764     0.19000
C473        C  0.62606630  0.03653618  0.00545192    -0.06900
C474        C  0.59980345  0.01455464  0.04002748    -0.18000
C475        C  0.57526244  0.97431044  0.02803550     0.10300
C476        C  0.59420705  0.93990699  0.99846811    -0.06800
C477        C  0.62593960  0.95778467  0.96698895    -0.18000
C478        C  0.63874552  0.00595266  0.96664518     0.10400
S479        S  0.51894197  0.98875363  0.01819708    -0.33000
S480        S  0.66868210  0.02241640  0.91441538    -0.33000
H481        H  0.64911560  0.98825817  0.88351590     0.28400
H482        H  0.51314891  0.00958864  0.06311004     0.28400
H483        H  0.58881804  0.03488820  0.07030501     0.19000
H484        H  0.64018614  0.93502218  0.94055836     0.19000
C485        C  0.89054442  0.33567123  0.82800980    -0.06900
C486        C  0.90455264  0.37994182  0.81155276    -0.18000
C487        C  0.94306526  0.40310800  0.82913345     0.10300
C488        C  0.96657674  0.38357661  0.86812511    -0.06800
C489        C  0.95380278  0.33659899  0.88067433    -0.18000
C490        C  0.91726328  0.31272994  0.86098740     0.10400
S491        S  0.96245077  0.45356737  0.79651874    -0.33000
S492        S  0.90750225  0.25194554  0.87851818    -0.33000
H493        H  0.89063037  0.23596184  0.83471176     0.28400
H494        H  0.92856578  0.45506309  0.76284351     0.28400
H495        H  0.88508812  0.39627571  0.78453941     0.19000
H496        H  0.97313841  0.31758054  0.90598731     0.19000
C497        C  0.69219378  0.15346234  0.88712844    -0.06900
C498        C  0.71772948  0.12838324  0.91893263    -0.18000
C499        C  0.69914156  0.11100726  0.96061291     0.10300
C500        C  0.65321843  0.11717141  0.96900355    -0.06800
C501        C  0.63237194  0.15202272  0.94198572    -0.18000
C502        C  0.64957363  0.16684811  0.89982517     0.10400
S503        S  0.73387837  0.07835974  0.99973249    -0.33000
S504        S  0.61593407  0.20487507  0.86460943    -0.33000
H505        H  0.63428677  0.19035202  0.82145057     0.28400
H506        H  0.77309107  0.08214290  0.97379650     0.28400
H507        H  0.75227185  0.12322999  0.91137590     0.19000
H508        H  0.60138371  0.16728918  0.95221791     0.19000
C509        C  0.85597607  0.03314563  0.62762395    -0.06900
C510        C  0.86079018  0.04751721  0.67568562    -0.18000
C511        C  0.83518832  0.08356730  0.69711102     0.10300
C512        C  0.80295311  0.10695137  0.67062460    -0.06800
C513        C  0.79678564  0.09176827  0.62378538    -0.18000
C514        C  0.82077512  0.05542276  0.60235208     0.10400
S515        S  0.84531948  0.09776116  0.75813957    -0.33000
S516        S  0.79695099  0.03564582  0.54636083    -0.33000
H517        H  0.78665346  0.08133654  0.53030508     0.28400
H518        H  0.80130215  0.08889546  0.77111184     0.28400
H519        H  0.88463707  0.02977359  0.69723594     0.19000
H520        H  0.77048260  0.10697715  0.60352141     0.19000
C521        C  0.88438208  0.32854315  0.16276398    -0.06900
C522        C  0.90177070  0.37031417  0.18400557    -0.18000
C523        C  0.94176475  0.39126304  0.16900848     0.10300
C524        C  0.96387809  0.37255224  0.12825464    -0.06800
C525        C  0.94483275  0.33059164  0.10690828    -0.18000
C526        C  0.90589972  0.30918015  0.12316165     0.10400
S527        S  0.96699460  0.43490205  0.20860966    -0.33000
S528        S  0.88590802  0.25615267  0.09235744    -0.33000
H529        H  0.84146667  0.26145675  0.10492632     0.28400
H530        H  0.94314271  0.42298735  0.24918547     0.28400
H531        H  0.88601259  0.38402677  0.21553233     0.19000
H532        H  0.96110068  0.31286961  0.07778976     0.19000
C533        C  0.67580659  0.16497279  0.13809792    -0.06900
C534        C  0.68025690  0.11538141  0.13489507    -0.18000
C535        C  0.66897554  0.08937425  0.09343243     0.10300
C536        C  0.64803780  0.11360390  0.05537972    -0.06800
C537        C  0.64594705  0.16387955  0.05945131    -0.18000
C538        C  0.66185586  0.18937438  0.09822666     0.10400
S539        S  0.68502965  0.02730504  0.09166086    -0.33000
S540        S  0.66563920  0.25336476  0.09323808    -0.33000
H541        H  0.70574002  0.25755618  0.11803323     0.28400
H542        H  0.71616414  0.03026094  0.12835928     0.28400
H543        H  0.69253396  0.09690459  0.16517128     0.19000
H544        H  0.63203667  0.18426057  0.03136461     0.19000
C545        C  0.86389093  0.03637356  0.37900702    -0.06900
C546        C  0.88780552  0.07244006  0.35597596    -0.18000
C547        C  0.86775569  0.10499351  0.32693082     0.10300
C548        C  0.82146547  0.10786749  0.32602967    -0.06800
C549        C  0.79659466  0.07706309  0.35388220    -0.18000
C550        C  0.81690796  0.04175388  0.38067649     0.10400
S551        S  0.90241925  0.14136561  0.28954433    -0.33000
S552        S  0.78158766  0.00244902  0.41406705    -0.33000
H553        H  0.74094482  0.02125756  0.40054478     0.28400
H554        H  0.94304752  0.12101667  0.30080267     0.28400
H555        H  0.92281289  0.07582456  0.35987813     0.19000
H556        H  0.76124237  0.08117692  0.35500295     0.19000
C557        C  0.10929446  0.95657889  0.38156769    -0.06900
C558        C  0.15567930  0.95606515  0.38601451    -0.18000
C559        C  0.18078721  0.91669107  0.37255833     0.10300
C560        C  0.16042424  0.87651047  0.35005001    -0.06800
C561        C  0.11499573  0.87636755  0.34415819    -0.18000
C562        C  0.08920684  0.91530584  0.35795849     0.10400
S563        S  0.23856270  0.91985814  0.38719726    -0.33000
S564        S  0.03307927  0.90944007  0.33705915    -0.33000
H565        H  0.02832353  0.86031714  0.34572395     0.28400
H566        H  0.24192804  0.87097222  0.39669762     0.28400
H567        H  0.17260516  0.98632455  0.40263068     0.19000
H568        H  0.09969775  0.84660470  0.32498381     0.19000
C569        C  0.36693882  0.88248148  0.05917558    -0.06900
C570        C  0.38451778  0.84845854  0.08975270    -0.18000
C571        C  0.36015832  0.82837064  0.12530455     0.10300
C572        C  0.31494738  0.83791461  0.12815487    -0.06800
C573        C  0.29660182  0.87195998  0.09904045    -0.18000
C574        C  0.32214366  0.89558602  0.06585946     0.10400
S575        S  0.38895709  0.79207049  0.16714196    -0.33000
S576        S  0.29649517  0.94297352  0.03404822    -0.33000
H577        H  0.26326081  0.95252264  0.06717458     0.28400
H578        H  0.43121083  0.81179736  0.15948840     0.28400
H579        H  0.41688678  0.83422376  0.08512729     0.19000
H580        H  0.26214513  0.88063121  0.10272640     0.19000
C581        C  0.11997509  0.67254634  0.19880841    -0.06900
C582        C  0.11799219  0.68690717  0.15195764    -0.18000
C583        C  0.08388726  0.67102206  0.12089463     0.10300
C584        C  0.05255959  0.63528575  0.13566473    -0.06800
C585        C  0.05421342  0.62408493  0.18416926    -0.18000
C586        C  0.08673903  0.64170756  0.21510525     0.10400
S587        S  0.07975684  0.70205929  0.06595875    -0.33000
S588        S  0.08534701  0.62100101  0.27470211    -0.33000
H589        H  0.09928238  0.66473185  0.29526501     0.28400
H590        H  0.11851216  0.73000818  0.06991316     0.28400
H591        H  0.14330686  0.71135987  0.13994530     0.19000
H592        H  0.03008382  0.59982274  0.19842666     0.19000
C593        C  0.35435754  0.17668575  0.89323920    -0.06900
C594        C  0.39210115  0.20046335  0.90972008    -0.18000
C595        C  0.42031492  0.17948232  0.94207758     0.10300
C596        C  0.41046910  0.13246394  0.95864160    -0.06800
C597        C  0.37323339  0.10843871  0.93806981    -0.18000
C598        C  0.34561824  0.12973101  0.90608051     0.10400
S599        S  0.46775437  0.21489868  0.96056247    -0.33000
S600        S  0.29768784  0.09622084  0.88581597    -0.33000
H601        H  0.29528789  0.11673571  0.84124878     0.28400
H602        H  0.46352210  0.25268409  0.92920704     0.28400
H603        H  0.39847946  0.23651707  0.89820446     0.19000
H604        H  0.36293235  0.07332671  0.94886970     0.19000
C605        C  0.05067524  0.38204397  0.87298071    -0.06900
C606        C  0.04657641  0.34607488  0.83670074    -0.18000
C607        C  0.08148965  0.31782349  0.82147789     0.10300
C608        C  0.12438551  0.32777634  0.83799826    -0.06800
C609        C  0.13012184  0.36578789  0.87082860    -0.18000
C610        C  0.09486446  0.39238252  0.88886852     0.10400
S611        S  0.06761658  0.26749257  0.78343580    -0.33000
S612        S  0.11127627  0.43880733  0.93136041    -0.33000
H613        H  0.07073456  0.45220093  0.94983775     0.28400
H614        H  0.09185852  0.23486442  0.80957916     0.28400
H615        H  0.01568370  0.33770157  0.81958073     0.19000
H616        H  0.16293322  0.37495769  0.88341746     0.19000
C617        C  0.10640457  0.05958988  0.63676027    -0.06900
C618        C  0.13197183  0.08918472  0.60712762    -0.18000
C619        C  0.15641247  0.12897967  0.62354042     0.10300
C620        C  0.16150240  0.13884931  0.67244900    -0.06800
C621        C  0.13641658  0.11063902  0.70296512    -0.18000
C622        C  0.10866159  0.07236564  0.68604198     0.10400
S623        S  0.17911537  0.16681203  0.57868252    -0.33000
S624        S  0.07651250  0.04091790  0.72884517    -0.33000
H625        H  0.08111629  0.07489345  0.76574449     0.28400
H626        H  0.16805712  0.20940529  0.60256043     0.28400
H627        H  0.13461364  0.08189260  0.56998554     0.19000
H628        H  0.13928007  0.11790919  0.74038192     0.19000
C629        C  0.54204523  0.11184990  0.62485993    -0.06900
C630        C  0.54162468  0.13417696  0.67054364    -0.18000
C631        C  0.57906612  0.15452729  0.69227913     0.10300
C632        C  0.62016982  0.15031870  0.67053887    -0.06800
C633        C  0.62254377  0.12464713  0.62783593    -0.18000
C634        C  0.58498171  0.10487522  0.60511898     0.10400
S635        S  0.57104255  0.18786644  0.74636517    -0.33000
S636        S  0.59458972  0.07396048  0.54984016    -0.33000
H637        H  0.64077228  0.07198307  0.55200930     0.28400
H638        H  0.60473452  0.22196430  0.73956212     0.28400
H639        H  0.51151556  0.13749673  0.69027663     0.19000
H640        H  0.65447651  0.12160261  0.61126711     0.19000
C641        C  0.45773517  0.11894533  0.62746659    -0.06900
C642        C  0.42393765  0.09269977  0.65004389    -0.18000
C643        C  0.39156627  0.11476356  0.67732865     0.10300
C644        C  0.39040527  0.16484912  0.68086622    -0.06800
C645        C  0.42209185  0.19182309  0.65766923    -0.18000
C646        C  0.45501858  0.17017422  0.63055986     0.10400
S647        S  0.35258324  0.07687210  0.70730754    -0.33000
S648        S  0.49416858  0.21006279  0.60302846    -0.33000
H649        H  0.47024286  0.25242111  0.60799755     0.28400
H650        H  0.34480192  0.10898393  0.74500027     0.28400
H651        H  0.42176470  0.05435734  0.64656920     0.19000
H652        H  0.42009343  0.23037252  0.65977950     0.19000
C653        C  0.44137267  0.86288623  0.62177079    -0.06900
C654        C  0.41296408  0.89660834  0.64263738    -0.18000
C655        C  0.37974800  0.88497115  0.67471005     0.10300
C656        C  0.37017892  0.83634682  0.68515864    -0.06800
C657        C  0.39480988  0.80156591  0.66072668    -0.18000
C658        C  0.42930211  0.81392282  0.62907304     0.10400
S659        S  0.35108087  0.93511637  0.70112441    -0.33000
S660        S  0.45807331  0.76606323  0.59959161    -0.33000
H661        H  0.42928692  0.72869045  0.61226116     0.28400
H662        H  0.38525473  0.96923473  0.69631857     0.28400
H663        H  0.41589563  0.93363725  0.63410267     0.19000
H664        H  0.38730423  0.76432819  0.66681466     0.19000
C665        C  0.49666561  0.93454141  0.60478316    -0.06900
C666        C  0.49133940  0.95975919  0.64823431    -0.18000
C667        C  0.49394711  0.01086494  0.65011889     0.10300
C668        C  0.49748832  0.03691655  0.60673749    -0.06800
C669        C  0.50870629  0.00800335  0.56722851    -0.18000
C670        C  0.52226989  0.96107430  0.57377189     0.10400
S671        S  0.49389889  0.03953987  0.70755974    -0.33000
S672        S  0.58012922  0.96155579  0.58898957    -0.33000
H673        H  0.59508900  0.97488854  0.54450088     0.28400
H674        H  0.47317551  0.00173507  0.73118718     0.28400
H675        H  0.48432611  0.94015275  0.67975306     0.19000
H676        H  0.51790941  0.02425610  0.53482227     0.19000
C677        C  0.36483669  0.16238078  0.31634671    -0.06900
C678        C  0.39689942  0.19366275  0.33599620    -0.18000
C679        C  0.43288921  0.17735156  0.36341409     0.10300
C680        C  0.44043057  0.12714662  0.36918380    -0.06800
C681        C  0.40499631  0.09708617  0.35453589    -0.18000
C682        C  0.36853689  0.11325850  0.32852315     0.10400
S683        S  0.46926987  0.22214283  0.38916853    -0.33000
S684        S  0.32725220  0.06853388  0.31286640    -0.33000
H685        H  0.35773604  0.03195533  0.30517868     0.28400
H686        H  0.44836405  0.26275253  0.37220061     0.28400
H687        H  0.39391843  0.23136907  0.32949292     0.19000
H688        H  0.40526599  0.05979625  0.36331658     0.19000
C689        C  0.52768270  0.12325017  0.36449260    -0.06900
C690        C  0.52347890  0.14916090  0.32263199    -0.18000
C691        C  0.55927100  0.17093176  0.30013304     0.10300
C692        C  0.60236222  0.16693634  0.31870067    -0.06800
C693        C  0.60838928  0.13542464  0.35546678    -0.18000
C694        C  0.57232169  0.11248305  0.37759416     0.10400
S695        S  0.54884148  0.20057597  0.24523596    -0.33000
S696        S  0.58599864  0.07197950  0.42365637    -0.33000
H697        H  0.63004309  0.08668405  0.43074289     0.28400
H698        H  0.50296217  0.20465703  0.25018374     0.28400
H699        H  0.49194212  0.15181843  0.30573993     0.19000
H700        H  0.64162288  0.12950795  0.36753159     0.19000
C701        C  0.48356743  0.11931326  0.44587562    -0.06900
C702        C  0.44872976  0.09897349  0.47204395    -0.18000
C703        C  0.45170569  0.09108405  0.52093915     0.10300
C704        C  0.48955925  0.10697703  0.54749058    -0.06800
C705        C  0.51885807  0.13719656  0.52288780    -0.18000
C706        C  0.51644016  0.14422072  0.47365271     0.10400
S707        S  0.40692745  0.05809216  0.54724226    -0.33000
S708        S  0.55320863  0.18940403  0.45059453    -0.33000
H709        H  0.58477042  0.18908139  0.48685124     0.28400
H710        H  0.38354278  0.04531960  0.50602516     0.28400
H711        H  0.42115273  0.08341196  0.45277062     0.19000
H712        H  0.54445049  0.15601709  0.54231129     0.19000
C713        C  0.52719780  0.86755105  0.35482185    -0.06900
C714        C  0.56932834  0.88556298  0.36790827    -0.18000
C715        C  0.60861105  0.86698417  0.35058640     0.10300
C716        C  0.60771585  0.82890227  0.31728668    -0.06800
C717        C  0.56693441  0.81674881  0.29677266    -0.18000
C718        C  0.52758801  0.83849719  0.31227476     0.10400
S719        S  0.65890351  0.89644271  0.37041729    -0.33000
S720        S  0.48476544  0.83815094  0.26834407    -0.33000
H721        H  0.49222299  0.88643242  0.25802998     0.28400
H722        H  0.68042857  0.89237197  0.32677358     0.21200
H723        H  0.57273417  0.91750040  0.38876268     0.19000
H724        H  0.56592052  0.79205666  0.26693415     0.19000
C725        C  0.44071571  0.86649838  0.36089717    -0.06900
C726        C  0.40712496  0.89811376  0.34844477    -0.18000
C727        C  0.36910304  0.88316775  0.32373614     0.10300
C728        C  0.36217754  0.83401546  0.31164866    -0.06800
C729        C  0.39192422  0.80153632  0.32960214    -0.18000
C730        C  0.42999081  0.81655440  0.35458851     0.10400
S731        S  0.33056304  0.92907223  0.30894118    -0.33000
S732        S  0.46451322  0.76970874  0.37491651    -0.33000
H733        H  0.45093709  0.73422023  0.34198231     0.28400
H734        H  0.34011190  0.95932339  0.34791567     0.28400
H735        H  0.40954301  0.93531071  0.35845487     0.19000
H736        H  0.38555461  0.76375707  0.32366767     0.19000
C737        C  0.47994205  0.87082183  0.43729889    -0.06900
C738        C  0.44743832  0.89540750  0.46359294    -0.18000
C739        C  0.44682175  0.89738132  0.51335343     0.10300
C740        C  0.47673780  0.87004876  0.54019010    -0.06800
C741        C  0.49779071  0.83382527  0.51340896    -0.18000
C742        C  0.50383235  0.83658150  0.46364076     0.10400
S743        S  0.40773975  0.93683389  0.54042182    -0.33000
S744        S  0.54671567  0.80037622  0.43801774    -0.33000
H745        H  0.54926811  0.76720729  0.47430336     0.28400
H746        H  0.38076887  0.94345825  0.50091022     0.28400
H747        H  0.42547037  0.91838039  0.44492786     0.19000
H748        H  0.51459239  0.80630403  0.53192720     0.19000
C749        C  0.49033160  0.94311715  0.38313552    -0.06900
C750        C  0.48341133  0.96965596  0.34180652    -0.18000
C751        C  0.48220635  0.02078215  0.34205715     0.10300
C752        C  0.48587542  0.04789043  0.38542289    -0.06800
C753        C  0.49710684  0.02050321  0.42459532    -0.18000
C754        C  0.50452720  0.97157789  0.42259128     0.10400
S755        S  0.47559559  0.04974288  0.28639684    -0.33000
S756        S  0.54089759  0.95361037  0.46904698    -0.33000
H757        H  0.55386776  0.90795399  0.45695650     0.28400
H758        H  0.47648545  0.00850564  0.25734527     0.28400
H759        H  0.47755586  0.95005557  0.30925651     0.19000
H760        H  0.50690722  0.03790722  0.45700830     0.19000
C761        C  0.64177867  0.56423471  0.11431594    -0.06900
C762        C  0.61796329  0.59786388  0.14178155    -0.18000
C763        C  0.63830139  0.63823370  0.16369493     0.10300
C764        C  0.68333938  0.64883896  0.15543554    -0.06800
C765        C  0.70653421  0.61678437  0.12630376    -0.18000
C766        C  0.68714712  0.57576026  0.10582679     0.10400
S767        S  0.60489158  0.67335458  0.20293240    -0.33000
S768        S  0.72352765  0.53704412  0.07254831    -0.33000
H769        H  0.75606773  0.57155792  0.06224657     0.28400
H770        H  0.63555582  0.67228697  0.24005606     0.28400
H771        H  0.58311649  0.59297985  0.14725111     0.19000
H772        H  0.74117409  0.62314775  0.11983607     0.19000
C773        C  0.64187821  0.47286459  0.12235934    -0.06900
C774        C  0.67389404  0.48146339  0.15869809    -0.18000
C775        C  0.69599077  0.44492809  0.18137702     0.10300
C776        C  0.68380066  0.39718796  0.17200373    -0.06800
C777        C  0.65052779  0.38790518  0.13833383    -0.18000
C778        C  0.62959237  0.42391346  0.11385444     0.10400
S779        S  0.73888456  0.46204546  0.22243597    -0.33000
S780        S  0.58724378  0.40434959  0.07245390    -0.33000
H781        H  0.59551471  0.35509968  0.07152222     0.28400
H782        H  0.77062080  0.43398865  0.19935986     0.28400
H783        H  0.68257624  0.51697519  0.17099440     0.19000
H784        H  0.64000880  0.35146409  0.13117228     0.19000
C785        C  0.63908919  0.45290734  0.85557012    -0.06900
C786        C  0.67150683  0.46048070  0.81968548    -0.18000
C787        C  0.69785475  0.42424980  0.80063023     0.10300
C788        C  0.69193909  0.37711330  0.81506425    -0.06800
C789        C  0.65554994  0.36723904  0.84431603    -0.18000
C790        C  0.62870510  0.40354144  0.86383245     0.10400
S791        S  0.74117383  0.44144463  0.76097405    -0.33000
S792        S  0.58418131  0.38224090  0.90080103    -0.33000
H793        H  0.57586470  0.42413826  0.92649522     0.28400
H794        H  0.72745786  0.40876940  0.72542764     0.28400
H795        H  0.67820443  0.49524321  0.80569906     0.19000
H796        H  0.64909727  0.33059165  0.85405170     0.19000
C797        C  0.62762600  0.50040871  0.93803359    -0.06900
C798        C  0.61818664  0.54438991  0.96138649    -0.18000
C799        C  0.61618405  0.55084429  0.01029683     0.10300
C800        C  0.63010613  0.51414929  0.04046852    -0.06800
C801        C  0.64983669  0.47470450  0.01772087    -0.18000
C802        C  0.64872698  0.46664768  0.96844636     0.10400
S803        S  0.59192371  0.60562948  0.03205721    -0.33000
S804        S  0.68003580  0.41452387  0.95196637    -0.33000
H805        H  0.70248857  0.43320571  0.91358522     0.28400
H806        H  0.57047141  0.61782342  0.99017958     0.28400
H807        H  0.61375024  0.57599910  0.94142862     0.19000
H808        H  0.66691668  0.44907282  0.03846334     0.19000
C809        C  0.40194237  0.45987081  0.13467738    -0.06900
C810        C  0.39762115  0.41336935  0.11395471    -0.18000
C811        C  0.37404795  0.37553920  0.13564455     0.10300
C812        C  0.35561608  0.38238393  0.18094543    -0.06800
C813        C  0.36444620  0.42577200  0.20413153    -0.18000
C814        C  0.38907593  0.46282647  0.18360122     0.10400
S815        S  0.36743603  0.32023354  0.10264121    -0.33000
S816        S  0.40463393  0.51097590  0.22404689    -0.33000
H817        H  0.39997538  0.48581863  0.26609783     0.28400
H818        H  0.32659236  0.30695618  0.12180182     0.28400
H819        H  0.41104215  0.40625921  0.07956263     0.19000
H820        H  0.35169243  0.43073302  0.23942826     0.19000
C821        C  0.39917790  0.55060183  0.12761247    -0.06900
C822        C  0.35273738  0.54964337  0.12223661    -0.18000
C823        C  0.32506368  0.58336340  0.14271605     0.10300
C824        C  0.34250099  0.61993149  0.17253897    -0.06800
C825        C  0.38844258  0.62455589  0.17580519    -0.18000
C826        C  0.41722838  0.59178257  0.15344260     0.10400
S827        S  0.26720837  0.57716026  0.12861129    -0.33000
S828        S  0.47444189  0.60572106  0.16614693    -0.33000
H829        H  0.49330136  0.59153597  0.12360350     0.28400
H830        H  0.25963969  0.62658382  0.12826097     0.28400
H831        H  0.33702504  0.52067650  0.10232731     0.19000
H832        H  0.40218854  0.65313511  0.19787304     0.19000
C833        C  0.56853529  0.51118919  0.10271849    -0.06900
C834        C  0.54152665  0.50008744  0.06323450    -0.18000
C835        C  0.49771378  0.48678294  0.06711712     0.10300
C836        C  0.47348868  0.49959810  0.10772791    -0.06800
C837        C  0.49948764  0.50375900  0.14899551    -0.18000
C838        C  0.54641818  0.50862557  0.14722600     0.10400
S839        S  0.47971372  0.43947935  0.02703992    -0.33000
S840        S  0.57653711  0.51109611  0.20214361    -0.33000
H841        H  0.54047273  0.50322349  0.23207145     0.28400
H842        H  0.50523263  0.45344999  0.98826690     0.28400
H843        H  0.55526927  0.49242297  0.02928380     0.19000
H844        H  0.48338935  0.50531967  0.18254649     0.19000
C845        C  0.34843473  0.62624529  0.82764359    -0.06900
C846        C  0.37678105  0.59770928  0.80063590    -0.18000
C847        C  0.39832412  0.55766668  0.81943231     0.10300
C848        C  0.39225122  0.54489865  0.86776808    -0.06800
C849        C  0.36309736  0.57432813  0.89410577    -0.18000
C850        C  0.34233536  0.61431505  0.87517134     0.10400
S851        S  0.43079122  0.52166220  0.77944463    -0.33000
S852        S  0.30694858  0.64839071  0.91359619    -0.33000
H853        H  0.31270737  0.69196331  0.89056833     0.28400
H854        H  0.42668530  0.54995391  0.73949174     0.28400
H855        H  0.38017111  0.60545855  0.76369469     0.19000
H856        H  0.35486202  0.56618638  0.92995818     0.19000
C857        C  0.39291846  0.45170973  0.86833593    -0.06900
C858        C  0.35571207  0.45340861  0.83753492    -0.18000
C859        C  0.33305551  0.41210699  0.82008711     0.10300
C860        C  0.34685341  0.36637700  0.83241575    -0.06800
C861        C  0.38362339  0.36337343  0.86198508    -0.18000
C862        C  0.40631616  0.40442727  0.88017807     0.10400
S863        S  0.28474453  0.41798657  0.78360820    -0.33000
S864        S  0.44928588  0.39429077  0.92244740    -0.33000
H865        H  0.45707873  0.34639488  0.90962024     0.28400
H866        H  0.28662484  0.46797399  0.77995934     0.28400
H867        H  0.34187787  0.48707375  0.82845792     0.19000
H868        H  0.39298319  0.32832404  0.87338324     0.19000
C869        C  0.46726062  0.50290857  0.88004129    -0.06900
C870        C  0.49021087  0.46693896  0.85421354    -0.18000
C871        C  0.53678336  0.46762850  0.84792341     0.10300
C872        C  0.56448228  0.49966034  0.87517696    -0.06800
C873        C  0.54108675  0.53956515  0.89292089    -0.18000
C874        C  0.49483858  0.54374114  0.89080785     0.10400
S875        S  0.55533052  0.43633947  0.79578370    -0.33000
S876        S  0.47610783  0.60469869  0.88597409    -0.33000
H877        H  0.50669630  0.62511467  0.91813320     0.28400
H878        H  0.58437069  0.47329827  0.78258748     0.28400
H879        H  0.47172769  0.44020024  0.83428340     0.19000
H880        H  0.55888059  0.57191486  0.90092346     0.19000
C881        C  0.40737001  0.50109264  0.94723878    -0.06900
C882        C  0.42719135  0.53889233  0.97320054    -0.18000
C883        C  0.42710133  0.54361512  0.02233654     0.10300
C884        C  0.40870747  0.50720402  0.05103016    -0.06800
C885        C  0.38061971  0.47447112  0.02606291    -0.18000
C886        C  0.37869205  0.47170845  0.97558758     0.10400
S887        S  0.44961383  0.59908388  0.04567220    -0.33000
S888        S  0.33315998  0.43713660  0.95109493    -0.33000
H889        H  0.32950362  0.40478781  0.98811597     0.28400
H890        H  0.47998694  0.60756180  0.00937234     0.28400
H891        H  0.44031094  0.56822809  0.95507005     0.19000
H892        H  0.35842693  0.45216005  0.04574546     0.19000
C893        C  0.15690302  0.66622945  0.62595835    -0.06900
C894        C  0.11261471  0.67781541  0.62352980    -0.18000
C895        C  0.08534741  0.65968888  0.58765533     0.10300
C896        C  0.10362672  0.62731527  0.55273003    -0.06800
C897        C  0.14985946  0.62081247  0.55404776    -0.18000
C898        C  0.17606653  0.63852651  0.59040891     0.10400
S899        S  0.02883825  0.67891807  0.59486146    -0.33000
S900        S  0.23362590  0.62352348  0.58982016    -0.33000
H901        H  0.24891689  0.66619411  0.61160940     0.28400
H902        H  0.01837762  0.68959718  0.54860313     0.28400
H903        H  0.09882597  0.70046267  0.65103005     0.19000
H904        H  0.16571898  0.59873450  0.52759865     0.19000
C905        C  0.10357894  0.61856308  0.46644904    -0.06900
C906        C  0.13091124  0.58730624  0.43983709    -0.18000
C907        C  0.15555430  0.60182446  0.40149696     0.10300
C908        C  0.15564040  0.65014933  0.38930809    -0.06800
C909        C  0.13088630  0.68240985  0.41601377    -0.18000
C910        C  0.10575018  0.66793629  0.45441475     0.10400
S911        S  0.18951183  0.55791284  0.37190487    -0.33000
S912        S  0.07901470  0.71463537  0.48783807    -0.33000
H913        H  0.08629376  0.75257542  0.45707378     0.28400
H914        H  0.16678607  0.51712681  0.38762033     0.28400
H915        H  0.13612497  0.55111847  0.44996637     0.19000
H916        H  0.13170235  0.71972721  0.40697062     0.19000
C917        C  0.82940177  0.67321440  0.38390726    -0.06900
C918        C  0.82685634  0.62366168  0.37950907    -0.18000
C919        C  0.84185950  0.59441751  0.41495258     0.10300
C920        C  0.86371049  0.61605634  0.45523675    -0.06800
C921        C  0.86682091  0.66657224  0.45770474    -0.18000
C922        C  0.84930793  0.69506313  0.42358567     0.10400
S923        S  0.82556614  0.53222245  0.40722129    -0.33000
S924        S  0.85404281  0.75916804  0.43135212    -0.33000
H925        H  0.86555401  0.76005570  0.47932049     0.28400
H926        H  0.83052865  0.53049932  0.35799329     0.28400
H927        H  0.80943755  0.60773404  0.34961857     0.19000
H928        H  0.88415097  0.68403955  0.48671401     0.19000
C929        C  0.93490279  0.60140187  0.50125875    -0.06900
C930        C  0.95602107  0.58229237  0.54057705    -0.18000
C931        C  0.00128671  0.58412476  0.54712049     0.10300
C932        C  0.02889410  0.60608957  0.51274128    -0.06800
C933        C  0.00773821  0.62655703  0.47413604    -0.18000
C934        C  0.96259339  0.62183307  0.46598869     0.10400
S935        S  0.01863681  0.55605856  0.60075396    -0.33000
S936        S  0.94703634  0.63105913  0.40519025    -0.33000
H937        H  0.97706633  0.66871393  0.39679239     0.28400
H938        H  0.05983173  0.57658106  0.60847138     0.28400
H939        H  0.93619809  0.56469106  0.56694292     0.19000
H940        H  0.02689373  0.64020551  0.44561085     0.19000
C941        C  0.11274450  0.36388665  0.46217577    -0.06900
C942        C  0.12323849  0.39557874  0.42503218    -0.18000
C943        C  0.13841924  0.38076879  0.38122275     0.10300
C944        C  0.15150371  0.33354494  0.37417947    -0.06800
C945        C  0.14282360  0.30084597  0.40974717    -0.18000
C946        C  0.12361653  0.31445680  0.45296739     0.10400
S947        S  0.14004024  0.42479698  0.33567837    -0.33000
S948        S  0.12308035  0.26615729  0.49468399    -0.33000
H949        H  0.09028012  0.28007804  0.52574763     0.28400
H950        H  0.12785369  0.39230151  0.29928097     0.28400
H951        H  0.12283637  0.43359327  0.42881946     0.19000
H952        H  0.15324643  0.26425657  0.40475366     0.19000
C953        C  0.12466776  0.36384927  0.55030993    -0.06900
C954        C  0.10453015  0.34233264  0.58963587    -0.18000
C955        C  0.12875679  0.31929992  0.62357033     0.10300
C956        C  0.17484470  0.31908625  0.62009041    -0.06800
C957        C  0.19567522  0.34115873  0.58228357    -0.18000
C958        C  0.17159354  0.36342336  0.54740689     0.10400
S959        S  0.09961106  0.28581956  0.66774589    -0.33000
S960        S  0.20217001  0.39516581  0.50287172    -0.33000
H961        H  0.24306098  0.37372498  0.51039009     0.28400
H962        H  0.05772773  0.30518150  0.66071472     0.28400
H963        H  0.06929784  0.34062243  0.59319022     0.19000
H964        H  0.23127794  0.34146620  0.58045750     0.19000
C965        C  0.08462064  0.54392249  0.51330627    -0.06900
C966        C  0.10998854  0.52199099  0.54805927    -0.18000
C967        C  0.11908118  0.47302920  0.54759624     0.10300
C968        C  0.09843428  0.44172696  0.51290859    -0.06800
C969        C  0.07002858  0.46398394  0.48081820    -0.18000
C970        C  0.06516495  0.51297835  0.47833623     0.10400
S971        S  0.15051808  0.45507922  0.59823806    -0.33000
S972        S  0.03628700  0.53352903  0.42706670    -0.33000
H973        H  0.04556155  0.49413713  0.39734100     0.28400
H974        H  0.17748028  0.49642829  0.60152964     0.28400
H975        H  0.12204513  0.54253805  0.57785927     0.19000
H976        H  0.05143297  0.44175087  0.45593743     0.19000
C977        C  0.87918519  0.35734181  0.53410947    -0.06900
C978        C  0.85078354  0.31754776  0.52607725    -0.18000
C979        C  0.82262793  0.30029701  0.56074545     0.10300
C980        C  0.82497551  0.31968136  0.60709021    -0.06800
C981        C  0.85528991  0.35573392  0.61712175    -0.18000
C982        C  0.88255079  0.37444885  0.58251104     0.10400
S983        S  0.78308816  0.25482137  0.54227459    -0.33000
S984        S  0.91516964  0.42436792  0.60410506    -0.33000
H985        H  0.92463862  0.40564972  0.64850193     0.28400
H986        H  0.74836832  0.27386454  0.56905047     0.28400
H987        H  0.84909113  0.29970564  0.49208563     0.19000
H988        H  0.85748583  0.36984455  0.65287466     0.19000
C989        C  0.88655666  0.36125828  0.44150551    -0.06900
C990        C  0.84042653  0.36685859  0.43335237    -0.18000
C991        C  0.81872478  0.35092286  0.39210783     0.10300
C992        C  0.84331721  0.33228222  0.35448789    -0.06800
C993        C  0.88917522  0.33058230  0.35993161    -0.18000
C994        C  0.91119743  0.34251396  0.40188653     0.10400
S995        S  0.75955427  0.35253732  0.39119512    -0.33000
S996        S  0.96951911  0.32989311  0.39580414    -0.33000
H997        H  0.98915467  0.36894524  0.41900362     0.28400
H998        H  0.75463149  0.30456675  0.37609444     0.28400
H999        H  0.82015505  0.38186862  0.46105173     0.19000
H1000       H  0.90875212  0.31774399  0.33055122     0.19000
C1001       C  0.89224342  0.43523629  0.48845112    -0.06900
C1002       C  0.86010652  0.45563356  0.51804145    -0.18000
C1003       C  0.85963809  0.50465287  0.52780768     0.10300
C1004       C  0.88088018  0.53608837  0.49577343    -0.06800
C1005       C  0.90655783  0.51496827  0.46012328    -0.18000
C1006       C  0.91310055  0.46639065  0.45630720     0.10400
S1007       S  0.84002033  0.52139875  0.58600293    -0.33000
S1008       S  0.94924934  0.44778738  0.40984140    -0.33000
H1009       H  0.94167035  0.48570330  0.37934666     0.28400
H1010       H  0.81853734  0.47831244  0.59734603     0.28400
H1011       H  0.83811870  0.43326750  0.53777775     0.19000
H1012       H  0.92287140  0.53754317  0.43504327     0.19000
C1013       C  0.95338800  0.37517998  0.50217537    -0.06900
C1014       C  0.97740733  0.41320512  0.52403424    -0.18000
C1015       C  0.01870588  0.40523466  0.54284898     0.10300
C1016       C  0.04572240  0.37240846  0.51873150    -0.06800
C1017       C  0.02251341  0.33253555  0.49892961    -0.18000
C1018       C  0.97582002  0.33090451  0.49991854     0.10400
S1019       S  0.03546257  0.43453618  0.59737379    -0.33000
S1020       S  0.94720099  0.27410749  0.49363108    -0.33000
H1021       H  0.98432824  0.24627841  0.50267996     0.28400
H1022       H  0.99731613  0.46087594  0.60414299     0.28400
H1023       H  0.96302078  0.44739697  0.53170375     0.19000
H1024       H  0.03901979  0.30347327  0.48170290     0.19000
C1025       C  0.81494647  0.66672284  0.61181971    -0.06900
C1026       C  0.79122839  0.63780434  0.57984599    -0.18000
C1027       C  0.81216948  0.61288938  0.54367467     0.10300
C1028       C  0.85920287  0.61442086  0.54064467    -0.06800
C1029       C  0.88211980  0.64517402  0.57310782    -0.18000
C1030       C  0.86073036  0.67114455  0.60791298     0.10400
S1031       S  0.77739080  0.57793592  0.50379179    -0.33000
S1032       S  0.89348590  0.71309423  0.64286112    -0.33000
H1033       H  0.86361543  0.75076337  0.63947485     0.28400
H1034       H  0.73753514  0.60075992  0.51406545     0.28400
H1035       H  0.75574353  0.63515968  0.58302799     0.19000
H1036       H  0.91672693  0.65326204  0.56991382     0.19000
C1037       C  0.67816562  0.62977325  0.82381773    -0.06900
C1038       C  0.70133251  0.60121189  0.85489856    -0.18000
C1039       C  0.68374002  0.55924564  0.87302937     0.10300
C1040       C  0.63951812  0.54431382  0.86158070    -0.06800
C1041       C  0.61754503  0.57156347  0.82736391    -0.18000
C1042       C  0.63604547  0.61352733  0.80874897     0.10400
S1043       S  0.72061198  0.52585641  0.90944866    -0.33000
S1044       S  0.60435406  0.64368557  0.76521775    -0.33000
H1045       H  0.64039357  0.65041938  0.73492156     0.28400
H1046       H  0.76045629  0.54957661  0.89900523     0.28400
H1047       H  0.73395856  0.61227235  0.86631714     0.19000
H1048       H  0.58581058  0.55998212  0.81374912     0.19000
C1049       C  0.59879938  0.81325224  0.67040512    -0.06900
C1050       C  0.60208667  0.82301131  0.62248841    -0.18000
C1051       C  0.56871845  0.84480310  0.59695426     0.10300
C1052       C  0.52623154  0.85300275  0.61820029    -0.06800
C1053       C  0.52382959  0.84272242  0.66720837    -0.18000
C1054       C  0.55884575  0.82358270  0.69296322     0.10400
S1055       S  0.58652669  0.86250248  0.53897217    -0.33000
S1056       S  0.55124776  0.81628104  0.75511215    -0.33000
H1057       H  0.59191448  0.83804192  0.76683170     0.28400
H1058       H  0.63152049  0.86979738  0.54932456     0.28400
H1059       H  0.63254685  0.81480829  0.60453661     0.19000
H1060       H  0.49480516  0.85169365  0.68720910     0.19000
C1061       C  0.63789413  0.80533038  0.88759449    -0.06900
C1062       C  0.61457853  0.84668124  0.87781340    -0.18000
C1063       C  0.59102426  0.87005294  0.91304430     0.10300
C1064       C  0.59721145  0.85541875  0.96039330    -0.06800
C1065       C  0.61010168  0.80755710  0.96626165    -0.18000
C1066       C  0.63015495  0.78224213  0.93025705     0.10400
S1067       S  0.55650941  0.91825241  0.89401296    -0.33000
S1068       S  0.64531508  0.72142337  0.94133018    -0.33000
H1069       H  0.63880908  0.70544811  0.89453104     0.28400
H1070       H  0.53179406  0.92455812  0.93493058     0.28400
H1071       H  0.61618276  0.86217924  0.84332856     0.19000
H1072       H  0.60627139  0.79015949  0.99960096     0.19000
C1073       C  0.81266211  0.86683541  0.67173702    -0.06900
C1074       C  0.85653763  0.87553607  0.68508133    -0.18000
C1075       C  0.87930938  0.91707922  0.67081979     0.10300
C1076       C  0.86024532  0.94641338  0.63584057    -0.06800
C1077       C  0.81436064  0.94039622  0.62906176    -0.18000
C1078       C  0.79047735  0.90276394  0.64774746     0.10400
S1079       S  0.92712959  0.93527064  0.70471356    -0.33000
S1080       S  0.73148661  0.90379601  0.64046148    -0.33000
H1081       H  0.72308637  0.88729136  0.68601717     0.28400
H1082       H  0.93127099  0.89357542  0.73092909     0.28400
H1083       H  0.87246637  0.85048958  0.70775274     0.19000
H1084       H  0.79650806  0.96428764  0.60735395     0.19000
C1085       C  0.96356950  0.64772669  0.86675809    -0.06900
C1086       C  0.96289850  0.69855062  0.86419044    -0.18000
C1087       C  0.92763361  0.72358530  0.84406119     0.10300
C1088       C  0.89136553  0.69829403  0.82438189    -0.06800
C1089       C  0.89275399  0.64868904  0.82301385    -0.18000
C1090       C  0.92794067  0.62311026  0.84181738     0.10400
S1091       S  0.93010963  0.78784408  0.84586178    -0.33000
S1092       S  0.92600960  0.56063231  0.82511626    -0.33000
H1093       H  0.87992840  0.55464045  0.82613788     0.28400
H1094       H  0.90401074  0.79390829  0.80559003     0.28400
H1095       H  0.98963623  0.71936317  0.87999883     0.19000
H1096       H  0.86557229  0.62950813  0.80606146     0.19000
loop_ 
_geom_bond_atom_site_label_1 
_geom_bond_atom_site_label_2 
_geom_bond_distance 
_geom_bond_site_symmetry_2 
_ccdc_geom_bond_type 
O1           Ni7   1.906       .  S
O1           C22   1.263       .  A
O2          Ni25   1.939       .  S
O2           C11   1.276       .  A
O3           Ni7   1.888       .  S
O3          Ni25   1.902       .  S
O3          Ni19   1.879       .  S
O3           H26   0.966       .  S
C4           O21   1.260       .  A
C4           O13   1.271       .  A
C4         C1061   1.459       .  S
O5          Ni24   1.928       .  S
O5           C11   1.270       .  A
O6          Ni24   1.893       .  S
O6            C8   1.272       .  A
Ni7          O10   1.888       .  S
Ni7          O12   1.891       .  S
C8           O18   1.282       .  A
C8         C1037   1.499       .  S
O9          Ni25   1.911       .  S
O9           C15   1.279       .  A
O10          C15   1.273       .  A
C11        C1088   1.496       .  S
O12          C14   1.264       .  A
O13         Ni24   1.922       .  S
C14          O20   1.271       .  A
C14        C1073   1.481       .  S
C15        C1025   1.453       .  S
H16          O17   0.966       .  S
O17         Ni25   1.925       .  S
O17         Ni19   1.939       .  S
O17         Ni24   1.900       .  S
O18         Ni19   1.968       .  S
Ni19         O23   1.949       .  S
Ni19         O21   1.871       .  S
O20         Ni25   1.932       .  S
C22          O23   1.273       .  A
C22        C1049   1.501       .  S
C27         C977   1.584       .  S
C27         C989   1.589       .  S
C27        C1001   1.563       .  S
C27        C1013   1.556       .  S
C28         C941   1.591       .  S
C28         C953   1.540       .  S
C28         C968   1.592       .  S
C28        C1016   1.580       .  S
C29         C920   1.547       .  S
C29         C929   1.572       .  S
C29        C1004   1.549       .  S
C29        C1028   1.559       .  S
C30         C896   1.559       .  S
C30         C905   1.581       .  S
C30         C932   1.549       .  S
C30         C965   1.576       .  S
C31         C848   1.600       .  S
C31         C857   1.606       .  S
C31         C869   1.626       .  S
C31         C881   1.624       .  S
C32         C809   1.607       .  S
C32         C821   1.589       .  S
C32         C836   1.584       .  S
C32         C884   1.617       .  S
C33         C785   1.599       .  S
C33         C797   1.616       .  S
C33         C872   1.626       .  S
C33        C1040   1.585       .  S
C34         C761   1.579       .  S
C34         C773   1.586       .  S
C34         C800   1.590       .  S
C34         C833   1.595       .  S
C35         C713   1.599       .  S
C35         C725   1.584       .  S
C35         C737   1.604       .  S
C35         C749   1.605       .  S
C36         C680   1.616       .  S
C36         C689   1.590       .  S
C36         C701   1.602       .  S
C36         C752   1.611       .  S
C37         C653   1.602       .  S
C37         C665   1.591       .  S
C37         C740   1.610       .  S
C37        C1052   1.596       .  S
C38         C629   1.594       .  S
C38         C641   1.576       .  S
C38         C668   1.595       .  S
C38         C704   1.606       .  S
O39         Ni45   1.916       .  S
O39          C60   1.266       .  A
O40         Ni63   1.924       .  S
O40          C49   1.276       .  A
O41         Ni45   1.881       .  S
O41         Ni63   1.892       .  S
O41         Ni57   1.887       .  S
O41          H64   0.966       .  S
C42          O59   1.266       .  A
C42          O51   1.275       .  A
C42         C593   1.452       .  S
O43         Ni62   1.926       .  S
O43          C49   1.273       .  A
O44         Ni62   1.916       .  S
O44          C46   1.270       .  A
Ni45         O48   1.904       .  S
Ni45         O50   1.896       .  S
C46          O56   1.284       .  A
C46         C860   1.505       .  S
O47         Ni63   1.911       .  S
O47          C53   1.281       .  A
O48          C53   1.279       .  A
C49         C608   1.500       .  S
O50          C52   1.265       .  A
O51         Ni62   1.925       .  S
C52          O58   1.287       .  A
C52         C620   1.519       .  S
C53         C956   1.463       .  S
H54          O55   0.966       .  S
O55         Ni63   1.918       .  S
O55         Ni57   1.917       .  S
O55         Ni62   1.908       .  S
O56         Ni57   1.973       .  S
Ni57         O61   1.917       .  S
Ni57         O59   1.889       .  S
O58         Ni63   1.988       .  S
C60          O61   1.271       .  A
C60         C644   1.468       .  S
O65         Ni71   1.905       .  S
O65          C86   1.261       .  A
O66         Ni89   1.933       .  S
O66          C75   1.278       .  A
O67         Ni71   1.883       .  S
O67         Ni89   1.888       .  S
O67         Ni83   1.886       .  S
O67          H90   0.966       .  S
C68          O85   1.269       .  A
C68          O77   1.274       .  A
C68         C908   1.472       .  S
O69         Ni88   1.928       .  S
O69          C75   1.275       .  A
O70         Ni88   1.904       .  S
O70          C72   1.268       .  A
Ni71         O74   1.891       .  S
Ni71         O76   1.895       .  S
C72          O82   1.285       .  A
C72         C581   1.489       .  S
O73         Ni89   1.902       .  S
O73          C79   1.276       .  A
O74          C79   1.274       .  A
C75         C824   1.502       .  S
O76          C78   1.261       .  A
O77         Ni88   1.927       .  S
C78          O84   1.283       .  A
C78         C728   1.506       .  S
C79         C572   1.455       .  S
H80          O81   0.966       .  S
O81         Ni89   1.904       .  S
O81         Ni83   1.913       .  S
O81         Ni88   1.893       .  S
O82         Ni83   1.976       .  S
Ni83         O87   1.936       .  S
Ni83         O85   1.884       .  S
O84         Ni89   1.961       .  S
C86          O87   1.278       .  A
C86         C560   1.488       .  S
O91         Ni97   1.902       .  S
O91         C112   1.265       .  A
O92        Ni115   1.938       .  S
O92         C101   1.279       .  A
O93         Ni97   1.871       .  S
O93        Ni115   1.902       .  S
O93        Ni109   1.929       .  S
O93         H116   0.966       .  S
C94         O111   1.286       .  A
C94         O103   1.280       .  A
C94         C521   1.486       .  S
O95        Ni114   1.902       .  S
O95         C101   1.264       .  A
O96        Ni114   1.880       .  S
O96          C98   1.265       .  A
Ni97        O100   1.904       .  S
Ni97        O102   1.894       .  S
C98         O108   1.282       .  A
C98         C992   1.497       .  S
O99        Ni115   1.966       .  S
O99         C105   1.292       .  A
O100        C105   1.275       .  A
C101        C548   1.477       .  S
O102        C104   1.265       .  A
O103       Ni114   1.922       .  S
C104        O110   1.271       .  A
C104        C533   1.477       .  S
C105        C692   1.501       .  S
H106        O107   0.966       .  S
O107       Ni115   1.936       .  S
O107       Ni109   1.884       .  S
O107       Ni114   1.854       .  S
O108       Ni109   1.962       .  S
Ni109       O113   1.932       .  S
Ni109       O111   1.953       .  S
O110       Ni115   1.932       .  S
C112        O113   1.277       .  A
C112        C776   1.495       .  S
O117       Ni123   1.888       .  S
O117        C138   1.257       .  A
O118       Ni141   1.913       .  S
O118        C127   1.273       .  A
O119       Ni123   1.869       .  S
O119       Ni141   1.882       .  S
O119       Ni135   1.921       .  S
O119        H142   0.966       .  S
C120        O137   1.286       .  A
C120        O129   1.275       .  A
C120        C485   1.488       .  S
O121       Ni140   1.888       .  S
O121        C127   1.264       .  A
O122       Ni140   1.899       .  S
O122        C124   1.265       .  A
Ni123       O126   1.897       .  S
Ni123       O128   1.886       .  S
C124        O134   1.284       .  A
C124        C788   1.505       .  S
O125       Ni141   1.972       .  S
O125        C131   1.293       .  A
O126        C131   1.275       .  A
C127        C497   1.446       .  S
O128        C130   1.265       .  A
O129       Ni140   1.911       .  S
C130        O136   1.275       .  A
C130        C512   1.505       .  S
C131        C632   1.484       .  S
H132        O133   0.966       .  S
O133       Ni141   1.925       .  S
O133       Ni135   1.893       .  S
O133       Ni140   1.883       .  S
O134       Ni135   1.970       .  S
Ni135       O139   1.929       .  S
Ni135       O137   1.950       .  S
O136       Ni141   1.958       .  S
C138        O139   1.280       .  A
C138        C980   1.472       .  S
C143        C449   1.550       .  S
C143        C461   1.572       .  S
C143        C476   1.567   1_554  S
C143       C1064   1.549   1_554  S
C144        C437   1.591       .  S
C144        C473   1.557       .  S
C144        C500   1.559   1_554  S
C144        C536   1.568       .  S
C145        C416   1.558   1_554  S
C145        C425   1.569       .  S
C145        C464   1.558       .  S
C145        C569   1.544       .  S
C146        C404   1.571       .  S
C146        C428   1.580       .  S
C146        C440   1.565       .  S
C146        C596   1.572   1_554  S
O147       Ni153   1.940       .  S
O147        C168   1.275       .  A
O148       Ni171   1.951       .  S
O148        C157   1.280       .  A
O149       Ni153   1.897       .  S
O149       Ni171   1.924       .  S
O149       Ni165   1.903       .  S
O149        H172   0.967       .  S
C150        O167   1.284       .  A
C150        O159   1.271       .  A
C150        C413   1.463       .  S
O151       Ni170   1.909       .  S
O151        C157   1.263       .  A
O152       Ni170   1.903       .  S
O152        C154   1.265       .  A
Ni153       O156   1.927       .  S
Ni153       O158   1.915       .  S
C154        O164   1.285       .  A
C154        C656   1.524       .  S
O155       Ni171   1.880       .  S
O155        C161   1.269       .  A
O156        C161   1.279       .  A
C157        C377   1.504       .  S
O158        C160   1.270       .  A
O159       Ni170   1.883       .  S
C160        O166   1.283       .  A
C160        C389   1.499       .  S
C161        C893   1.447       .  S
H162        O163   0.966       .  S
O163       Ni171   1.883       .  S
O163       Ni165   1.911       .  S
O163       Ni170   1.878       .  S
O164       Ni165   1.978       .  S
Ni165       O169   1.955       .  S
Ni165       O167   1.928       .  S
O166       Ni171   1.969       .  S
C168        O169   1.284       .  A
C168        C845   1.507       .  S
C173        C353   1.574       .  S
C173        C365   1.596       .  S
C173        C509   1.590   1_565  S
C173       C1076   1.566       .  S
C174        C341   1.602       .  S
C174        C368   1.589       .  S
C174        C380   1.588   1_545  S
C174        C617   1.604       .  S
C175        C317   1.595       .  S
C175        C329   1.582       .  S
C175        C356   1.572       .  S
C175        C545   1.580   1_565  S
C176        C305   1.600       .  S
C176        C332   1.573   1_545  S
C176        C344   1.595       .  S
C176        C557   1.584   1_545  S
O177       Ni183   1.915       .  S
O177        C198   1.266       .  A
O178       Ni201   1.936       .  S
O178        C187   1.272       .  A
O179       Ni183   1.910       .  S
O179       Ni201   1.932       .  S
O179       Ni195   1.909       .  S
O179        H202   0.962       .  S
C180        O197   1.266       .  A
C180        O189   1.267       .  A
C180        C917   1.452       .  S
O181       Ni200   1.914       .  S
O181        C187   1.266       .  A
O182       Ni200   1.904       .  S
O182        C184   1.268       .  A
Ni183       O186   1.903       .  S
Ni183       O188   1.889       .  S
C184        O194   1.280       .  A
C184        C320   1.475       .  S
O185       Ni201   1.863       .  S
O185        C191   1.252       .  A
O186        C191   1.265       .  A
C187        C716   1.498       .  S
O188        C190   1.272       .  A
O189       Ni200   1.911       .  S
C190        O196   1.287       .  A
C190        C764   1.511       .  S
C191        C452   1.431       .  S
H192        O193   0.967       .  S
O193       Ni201   1.888       .  S
O193       Ni195   1.923       .  S
O193       Ni200   1.915       .  S
O194       Ni195   1.960       .  S
Ni195       O199   1.932       .  S
Ni195       O197   1.884       .  S
O196       Ni201   1.982       .  S
C198        O199   1.273       .  A
C198        C296   1.487       .  S
C203        C269   1.587       .  S
C203        C284   1.618       .  S
C203        C392   1.604       .  S
C203       C1085   1.602   1_455  S
C204        C260   1.595       .  S
C204        C281   1.608       .  S
C204        C293   1.595   1_455  S
C204        C584   1.592       .  S
C205        C248   1.620       .  S
C205        C272   1.606       .  S
C205        C488   1.582   1_455  S
C205        C605   1.587       .  S
C206        C236   1.614       .  S
C206        C245   1.616       .  S
C206        C257   1.616       .  S
C206        C524   1.579   1_455  S
O207       Ni213   1.947       .  S
O207        C228   1.277       .  A
O208       Ni231   1.937       .  S
O208        C217   1.277       .  A
O209       Ni213   1.902       .  S
O209       Ni231   1.918       .  S
O209       Ni225   1.904       .  S
O209        H232   0.966       .  S
C210        O227   1.268       .  A
C210        O219   1.277       .  A
C210        C401   1.467       .  S
O211       Ni230   1.936       .  S
O211        C217   1.273       .  A
O212       Ni230   1.910       .  S
O212        C214   1.268       .  A
Ni213       O216   1.934       .  S
Ni213       O218   1.918       .  S
C214        O224   1.295       .  A
C214        C677   1.542       .  S
O215       Ni231   1.906       .  S
O215        C221   1.273       .  A
O216        C221   1.282       .  A
C217        C308   1.495       .  S
O218        C220   1.269       .  A
O219       Ni230   1.919       .  S
C220        O226   1.289       .  A
C220        C233   1.521       .  S
C221        C944   1.486       .  S
H222        O223   0.966       .  S
O223       Ni231   1.906       .  S
O223       Ni225   1.918       .  S
O223       Ni230   1.897       .  S
O224       Ni225   2.003       .  S
Ni225       O229   1.939       .  S
Ni225       O227   1.894       .  S
O226       Ni231   1.983       .  S
C228        O229   1.280       .  A
C228        C812   1.505       .  S
C233        C234   1.393       .  A
C233        C238   1.420       .  A
C234        C235   1.416       .  A
C234        H243   1.084       .  S
C235        C236   1.458       .  A
C235        S239   1.807   1_455  S
C236        C237   1.425       .  A
C237        C238   1.422       .  A
C237        H244   1.084       .  S
C238        S240   1.802       .  S
S239        H242   1.408   1_655  S
S240        H241   1.407       .  S
C245        C246   1.419   1_455  A
C245        C250   1.427       .  A
C246        C247   1.403   1_554  A
C246        H255   1.076       .  S
C247        C248   1.440   1_655  A
C247        S251   1.830       .  S
C248        C249   1.429       .  A
C249        C250   1.418   1_556  A
C249        H256   1.075       .  S
C250        S252   1.804       .  S
S251        H254   1.395       .  S
S252        H253   1.406       .  S
C257        C258   1.421   1_455  A
C257        C262   1.436       .  A
C258        C259   1.411       .  A
C258        H267   1.069       .  S
C259        C260   1.423   1_655  A
C259        S263   1.808       .  S
C260        C261   1.421       .  A
C261        C262   1.418       .  A
C261        H268   1.076       .  S
C262        S264   1.814       .  S
S263        H266   1.408       .  S
S264        H265   1.408       .  S
C269        C270   1.417       .  A
C269        C274   1.423   1_455  A
C270        C271   1.417       .  A
C270        H279   1.077       .  S
C271        C272   1.448       .  A
C271        S275   1.812       .  S
C272        C273   1.411   1_455  A
C273        C274   1.398       .  A
C273        H280   1.051       .  S
C274        S276   1.811       .  S
S275        H278   1.399       .  S
S276        H277   1.407       .  S
C281        C282   1.419   1_455  A
C281        C286   1.429       .  A
C282        C283   1.420   1_554  A
C282        H291   1.074       .  S
C283        C284   1.440   1_655  A
C283        S287   1.807       .  S
C284        C285   1.426       .  A
C285        C286   1.422   1_556  A
C285        H292   1.082       .  S
C286        S288   1.808       .  S
S287        H290   1.408   1_556  S
S288        H289   1.406       .  S
C293        C294   1.421       .  A
C293        C298   1.445       .  A
C294        C295   1.404       .  A
C294        H303   1.081       .  S
C295        C296   1.406       .  A
C295        S299   1.804       .  S
C296        C297   1.396       .  A
C297        C298   1.412       .  A
C297        H304   1.083       .  S
C298        S300   1.807       .  S
S299        H302   1.406       .  S
S300        H301   1.407       .  S
C305        C306   1.421       .  A
C305        C310   1.448       .  A
C306        C307   1.410       .  A
C306        H315   1.082       .  S
C307        C308   1.408       .  A
C307        S311   1.802       .  S
C308        C309   1.396       .  A
C309        C310   1.414       .  A
C309        H316   1.083       .  S
C310        S312   1.813       .  S
S311        H314   1.406       .  S
S312        H313   1.407       .  S
C317        C318   1.427       .  A
C317        C322   1.443       .  A
C318        C319   1.396       .  A
C318        H327   1.076       .  S
C319        C320   1.400       .  A
C319        S323   1.805       .  S
C320        C321   1.391       .  A
C321        C322   1.406       .  A
C321        H328   1.079       .  S
C322        S324   1.803       .  S
S323        H326   1.400       .  S
S324        H325   1.407       .  S
C329        C330   1.415       .  A
C329        C334   1.423   1_565  A
C330        C331   1.380   1_655  A
C330        H339   1.075       .  S
C331        C332   1.423       .  A
C331        S335   1.813       .  S
C332        C333   1.424   1_565  A
C333        C334   1.419   1_455  A
C333        H340   1.070       .  S
C334        S336   1.809       .  S
S335        H338   1.405       .  S
S336        H337   1.407       .  S
C341        C342   1.418       .  A
C341        C346   1.432   1_545  A
C342        C343   1.408       .  A
C342        H351   1.081       .  S
C343        C344   1.438       .  A
C343        S347   1.815       .  S
C344        C345   1.421   1_545  A
C345        C346   1.411       .  A
C345        H352   1.071       .  S
C346        S348   1.815       .  S
S347        H350   1.390       .  S
S348        H349   1.407       .  S
C353        C354   1.411   1_565  A
C353        C358   1.443       .  A
C354        C355   1.393       .  A
C354        H363   1.080       .  S
C355        C356   1.429   1_545  A
C355        S359   1.812       .  S
C356        C357   1.408       .  A
C357        C358   1.413       .  A
C357        H364   1.076       .  S
C358        S360   1.815       .  S
S359        H362   1.406       .  S
S360        H361   1.406       .  S
C365        C366   1.420   1_565  A
C365        C370   1.428       .  A
C366        C367   1.421   1_655  A
C366        H375   1.076       .  S
C367        C368   1.433       .  A
C367        S371   1.809       .  S
C368        C369   1.415   1_545  A
C369        C370   1.408   1_455  A
C369        H376   1.079       .  S
C370        S372   1.806       .  S
S371        H374   1.406   1_455  S
S372        H373   1.406       .  S
C377        C378   1.397       .  A
C377        C382   1.419       .  A
C378        C379   1.413       .  A
C378        H387   1.083       .  S
C379        C380   1.444       .  A
C379        S383   1.804       .  S
C380        C381   1.418       .  A
C381        C382   1.404       .  A
C381        H388   1.083       .  S
C382        S384   1.804       .  S
S383        H386   1.407       .  S
S384        H385   1.407       .  S
C389        C390   1.395       .  A
C389        C394   1.410       .  A
C390        C391   1.410       .  A
C390        H399   1.083       .  S
C391        C392   1.442       .  A
C391        S395   1.807       .  S
C392        C393   1.426       .  A
C393        C394   1.417       .  A
C393        H400   1.079       .  S
C394        S396   1.802       .  S
S395        H398   1.407       .  S
S396        H397   1.406       .  S
C401        C402   1.401       .  A
C401        C406   1.397       .  A
C402        C403   1.406       .  A
C402        H411   1.083       .  S
C403        C404   1.435       .  A
C403        S407   1.809       .  S
C404        C405   1.423       .  A
C405        C406   1.381       .  A
C405        H412   1.076       .  S
C406        S408   1.806       .  S
S407        H410   1.407       .  S
S408        H409   1.408       .  S
C413        C414   1.396       .  A
C413        C418   1.409       .  A
C414        C415   1.400       .  A
C414        H423   1.082       .  S
C415        C416   1.437       .  A
C415        S419   1.810   1_556  S
C416        C417   1.413       .  A
C417        C418   1.380       .  A
C417        H424   1.078       .  S
C418        S420   1.808       .  S
S419        H422   1.406   1_554  S
S420        H421   1.408       .  S
C425        C426   1.409   1_554  A
C425        C430   1.428       .  A
C426        C427   1.390   1_565  A
C426        H435   1.079       .  S
C427        C428   1.430   1_556  A
C427        S431   1.808       .  S
C428        C429   1.418       .  A
C429        C430   1.402   1_545  A
C429        H436   1.076       .  S
C430        S432   1.815       .  S
S431        H434   1.409       .  S
S432        H433   1.407   1_565  S
C437        C438   1.418       .  A
C437        C442   1.427   1_554  A
C438        C439   1.408       .  A
C438        H447   1.078       .  S
C439        C440   1.430       .  A
C439        S443   1.814       .  S
C440        C441   1.408   1_554  A
C441        C442   1.396       .  A
C441        H448   1.074       .  S
C442        S444   1.811       .  S
S443        H446   1.406       .  S
S444        H445   1.406       .  S
C449        C450   1.414       .  A
C449        C454   1.434       .  A
C450        C451   1.383       .  A
C450        H459   1.078       .  S
C451        C452   1.396       .  A
C451        S455   1.806       .  S
C452        C453   1.385       .  A
C453        C454   1.385       .  A
C453        H460   1.085       .  S
C454        S456   1.806   1_554  S
S455        H458   1.407       .  S
S456        H457   1.407   1_556  S
C461        C462   1.415   1_554  A
C461        C466   1.435       .  A
C462        C463   1.385       .  A
C462        H471   1.073       .  S
C463        C464   1.425   1_556  A
C463        S467   1.816       .  S
C464        C465   1.415       .  A
C465        C466   1.390       .  A
C465        H472   1.079       .  S
C466        S468   1.827       .  S
S467        H470   1.407       .  S
S468        H469   1.394       .  S
C473        C474   1.413       .  A
C473        C478   1.440   1_554  A
C474        C475   1.378   1_545  A
C474        H483   1.079       .  S
C475        C476   1.397   1_554  A
C475        S479   1.787       .  S
C476        C477   1.410       .  A
C477        C478   1.398   1_565  A
C477        H484   1.072       .  S
C478        S480   1.808       .  S
S479        H482   1.405   1_565  S
S480        H481   1.408   1_545  S
C485        C486   1.395       .  A
C485        C490   1.411       .  A
C486        C487   1.414       .  A
C486        H495   1.082       .  S
C487        C488   1.441       .  A
C487        S491   1.799       .  S
C488        C489   1.419       .  A
C489        C490   1.396       .  A
C489        H496   1.083       .  S
C490        S492   1.805       .  S
S491        H494   1.406       .  S
S492        H493   1.407       .  S
C497        C498   1.399       .  A
C497        C502   1.400       .  A
C498        C499   1.407       .  A
C498        H507   1.083       .  S
C499        C500   1.428       .  A
C499        S503   1.805       .  S
C500        C501   1.413       .  A
C501        C502   1.379       .  A
C501        H508   1.078       .  S
C502        S504   1.806       .  S
S503        H506   1.406       .  S
S504        H505   1.404       .  S
C509        C510   1.423       .  A
C509        C514   1.445       .  A
C510        C511   1.413       .  A
C510        H519   1.082       .  S
C511        C512   1.412       .  A
C511        S515   1.797       .  S
C512        C513   1.401       .  A
C513        C514   1.392       .  A
C513        H520   1.083       .  S
C514        S516   1.819       .  S
S515        H518   1.407       .  S
S516        H517   1.408       .  S
C521        C522   1.400       .  A
C521        C526   1.407       .  A
C522        C523   1.411       .  A
C522        H531   1.083       .  S
C523        C524   1.435       .  A
C523        S527   1.804       .  S
C524        C525   1.425       .  A
C525        C526   1.401       .  A
C525        H532   1.081       .  S
C526        S528   1.804       .  S
S527        H530   1.407       .  S
S528        H529   1.407       .  S
C533        C534   1.399       .  A
C533        C538   1.405       .  A
C534        C535   1.411       .  A
C534        H543   1.083       .  S
C535        C536   1.442       .  A
C535        S539   1.813       .  S
C536        C537   1.413       .  A
C537        C538   1.383       .  A
C537        H544   1.081       .  S
C538        S540   1.803       .  S
S539        H542   1.407       .  S
S540        H541   1.408       .  S
C545        C546   1.409       .  A
C545        C550   1.438       .  A
C546        C547   1.391       .  A
C546        H555   1.071       .  S
C547        C548   1.410       .  A
C547        S551   1.815       .  S
C548        C549   1.398       .  A
C549        C550   1.411       .  A
C549        H556   1.082       .  S
C550        S552   1.810       .  S
S551        H554   1.407       .  S
S552        H553   1.406       .  S
C557        C558   1.415       .  A
C557        C562   1.450       .  A
C558        C559   1.398       .  A
C558        H567   1.083       .  S
C559        C560   1.415       .  A
C559        S563   1.803       .  S
C560        C561   1.390       .  A
C561        C562   1.403       .  A
C561        H568   1.084       .  S
C562        S564   1.808       .  S
S563        H566   1.407       .  S
S564        H565   1.408       .  S
C569        C570   1.414       .  A
C569        C574   1.427       .  A
C570        C571   1.379       .  A
C570        H579   1.074       .  S
C571        C572   1.406       .  A
C571        S575   1.815       .  S
C572        C573   1.398       .  A
C573        C574   1.394       .  A
C573        H580   1.083       .  S
C574        S576   1.809       .  S
S575        H578   1.408       .  S
S576        H577   1.407       .  S
C581        C582   1.402       .  A
C581        C586   1.404       .  A
C582        C583   1.420       .  A
C582        H591   1.082       .  S
C583        C584   1.440       .  A
C583        S587   1.810       .  S
C584        C585   1.422       .  A
C585        C586   1.398       .  A
C585        H592   1.077       .  S
C586        S588   1.804       .  S
S587        H590   1.406       .  S
S588        H589   1.405       .  S
C593        C594   1.392       .  A
C593        C598   1.394       .  A
C594        C595   1.401       .  A
C594        H603   1.083       .  S
C595        C596   1.436       .  A
C595        S599   1.807       .  S
C596        C597   1.425       .  A
C597        C598   1.387       .  A
C597        H604   1.079       .  S
C598        S600   1.806       .  S
S599        H602   1.406       .  S
S600        H601   1.405       .  S
C605        C606   1.430       .  A
C605        C610   1.438       .  A
C606        C607   1.398       .  A
C606        H615   1.076       .  S
C607        C608   1.406       .  A
C607        S611   1.802       .  S
C608        C609   1.409       .  A
C609        C610   1.406       .  A
C609        H616   1.083       .  S
C610        S612   1.819       .  S
S611        H614   1.407       .  S
S612        H613   1.394       .  S
C617        C618   1.419       .  A
C617        C622   1.440       .  A
C618        C619   1.400       .  A
C618        H627   1.075       .  S
C619        C620   1.420       .  A
C619        S623   1.807       .  S
C620        C621   1.404       .  A
C621        C622   1.428       .  A
C621        H628   1.082       .  S
C622        S624   1.799       .  S
S623        H626   1.406       .  S
S624        H625   1.407       .  S
C629        C630   1.430       .  A
C629        C634   1.436       .  A
C630        C631   1.400       .  A
C630        H639   1.078       .  S
C631        C632   1.400       .  A
C631        S635   1.801       .  S
C632        C633   1.401       .  A
C633        C634   1.409       .  A
C633        H640   1.083       .  S
C634        S636   1.805       .  S
S635        H638   1.405       .  S
S636        H637   1.406       .  S
C641        C642   1.416       .  A
C641        C646   1.440       .  A
C642        C643   1.398       .  A
C642        H651   1.077       .  S
C643        C644   1.406       .  A
C643        S647   1.805       .  S
C644        C645   1.390       .  A
C645        C646   1.402       .  A
C645        H652   1.083       .  S
C646        S648   1.810       .  S
S647        H650   1.407       .  S
S648        H649   1.406       .  S
C653        C654   1.412       .  A
C653        C658   1.434       .  A
C654        C655   1.401       .  A
C654        H663   1.073       .  S
C655        C656   1.426       .  A
C655        S659   1.815       .  S
C656        C657   1.410       .  A
C657        C658   1.426       .  A
C657        H664   1.082       .  S
C658        S660   1.805       .  S
S659        H662   1.408       .  S
S660        H661   1.406       .  S
C665        C666   1.421       .  A
C665        C670   1.396       .  A
C666        C667   1.432   1_565  A
C666        H675   1.081       .  S
C667        C668   1.450       .  A
C667        S671   1.805       .  S
C668        C669   1.416       .  A
C669        C670   1.400   1_545  A
C669        H676   1.072       .  S
C670        S672   1.809       .  S
S671        H674   1.407       .  S
S672        H673   1.402       .  S
C677        C678   1.406       .  A
C677        C682   1.432       .  A
C678        C679   1.428       .  A
C678        H687   1.082       .  S
C679        C680   1.442       .  A
C679        S683   1.801       .  S
C680        C681   1.412       .  A
C681        C682   1.417       .  A
C681        H688   1.080       .  S
C682        S684   1.806       .  S
S683        H686   1.406       .  S
S684        H685   1.406       .  S
C689        C690   1.414       .  A
C689        C694   1.444       .  A
C690        C691   1.401       .  A
C690        H699   1.075       .  S
C691        C692   1.417       .  A
C691        S695   1.814       .  S
C692        C693   1.397       .  A
C693        C694   1.417       .  A
C693        H700   1.082       .  S
C694        S696   1.804       .  S
S695        H698   1.407       .  S
S696        H697   1.406       .  S
C701        C702   1.414       .  A
C701        C706   1.435       .  A
C702        C703   1.416       .  A
C702        H711   1.081       .  S
C703        C704   1.434       .  A
C703        S707   1.805       .  S
C704        C705   1.415       .  A
C705        C706   1.420       .  A
C705        H712   1.077       .  S
C706        S708   1.809       .  S
S707        H710   1.406       .  S
S708        H709   1.407       .  S
C713        C714   1.414       .  A
C713        C718   1.444       .  A
C714        C715   1.396       .  A
C714        H723   1.066       .  S
C715        C716   1.411       .  A
C715        S719   1.808       .  S
C716        C717   1.402       .  A
C717        C718   1.417       .  A
C717        H724   1.083       .  S
C718        S720   1.801       .  S
S719        H722   1.408       .  S
S720        H721   1.405       .  S
C725        C726   1.412       .  A
C725        C730   1.439       .  A
C726        C727   1.404       .  A
C726        H735   1.076       .  S
C727        C728   1.424       .  A
C727        S731   1.809       .  S
C728        C729   1.397       .  A
C729        C730   1.409       .  A
C729        H736   1.082       .  S
C730        S732   1.798       .  S
S731        H734   1.407       .  S
S732        H733   1.407       .  S
C737        C738   1.418       .  A
C737        C742   1.435       .  A
C738        C739   1.415       .  A
C738        H747   1.081       .  S
C739        C740   1.428       .  A
C739        S743   1.798       .  S
C740        C741   1.417       .  A
C741        C742   1.431       .  A
C741        H748   1.078       .  S
C742        S744   1.809       .  S
S743        H746   1.407       .  S
S744        H745   1.406       .  S
C749        C750   1.421       .  A
C749        C754   1.424       .  A
C750        C751   1.433   1_565  A
C750        H759   1.079       .  S
C751        C752   1.437       .  A
C751        S755   1.807       .  S
C752        C753   1.411       .  A
C753        C754   1.393   1_545  A
C753        H760   1.073       .  S
C754        S756   1.806       .  S
S755        H758   1.406       .  S
S756        H757   1.381       .  S
C761        C762   1.419       .  A
C761        C766   1.432       .  A
C762        C763   1.412       .  A
C762        H771   1.077       .  S
C763        C764   1.416       .  A
C763        S767   1.798       .  S
C764        C765   1.407       .  A
C765        C766   1.398       .  A
C765        H772   1.081       .  S
C766        S768   1.815       .  S
S767        H770   1.408       .  S
S768        H769   1.407       .  S
C773        C774   1.431       .  A
C773        C778   1.431       .  A
C774        C775   1.401       .  A
C774        H783   1.076       .  S
C775        C776   1.402       .  A
C775        S779   1.800       .  S
C776        C777   1.408       .  A
C777        C778   1.399       .  A
C777        H784   1.080       .  S
C778        S780   1.812       .  S
S779        H782   1.408       .  S
S780        H781   1.406       .  S
C785        C786   1.436       .  A
C785        C790   1.438       .  A
C786        C787   1.403       .  A
C786        H795   1.076       .  S
C787        C788   1.400       .  A
C787        S791   1.801       .  S
C788        C789   1.412       .  A
C789        C790   1.418       .  A
C789        H796   1.084       .  S
C790        S792   1.816       .  S
S791        H794   1.407       .  S
S792        H793   1.396       .  S
C797        C798   1.421       .  A
C797        C802   1.451       .  A
C798        C799   1.400   1_556  A
C798        H807   1.072       .  S
C799        C800   1.422       .  A
C799        S803   1.811       .  S
C800        C801   1.411       .  A
C801        C802   1.415   1_554  A
C801        H808   1.078       .  S
C802        S804   1.810       .  S
S803        H806   1.408   1_554  S
S804        H805   1.395       .  S
C809        C810   1.422       .  A
C809        C814   1.447       .  A
C810        C811   1.422       .  A
C810        H819   1.076       .  S
C811        C812   1.416       .  A
C811        S815   1.802       .  S
C812        C813   1.392       .  A
C813        C814   1.407       .  A
C813        H820   1.084       .  S
C814        S816   1.810       .  S
S815        H818   1.404       .  S
S816        H817   1.408       .  S
C821        C822   1.418       .  A
C821        C826   1.453       .  A
C822        C823   1.394       .  A
C822        H831   1.083       .  S
C823        C824   1.411       .  A
C823        S827   1.807       .  S
C824        C825   1.402       .  A
C825        C826   1.420       .  A
C825        H832   1.084       .  S
C826        S828   1.809       .  S
S827        H830   1.408       .  S
S828        H829   1.393       .  S
C833        C834   1.415       .  A
C833        C838   1.437       .  A
C834        C835   1.381       .  A
C834        H843   1.072       .  S
C835        C836   1.414       .  A
C835        S839   1.806       .  S
C836        C837   1.415       .  A
C837        C838   1.431       .  A
C837        H844   1.074       .  S
C838        S840   1.808       .  S
S839        H842   1.408   1_554  S
S840        H841   1.406       .  S
C845        C846   1.403       .  A
C845        C850   1.411       .  A
C846        C847   1.422       .  A
C846        H855   1.082       .  S
C847        C848   1.439       .  A
C847        S851   1.809       .  S
C848        C849   1.423       .  A
C849        C850   1.411       .  A
C849        H856   1.079       .  S
C850        S852   1.804       .  S
S851        H854   1.406       .  S
S852        H853   1.406       .  S
C857        C858   1.430       .  A
C857        C862   1.439       .  A
C858        C859   1.416       .  A
C858        H867   1.075       .  S
C859        C860   1.406       .  A
C859        S863   1.807       .  S
C860        C861   1.401       .  A
C861        C862   1.418       .  A
C861        H868   1.083       .  S
C862        S864   1.803       .  S
S863        H866   1.407       .  S
S864        H865   1.407       .  S
C869        C870   1.426       .  A
C869        C874   1.434       .  A
C870        C871   1.426       .  A
C870        H879   1.079       .  S
C871        C872   1.434       .  A
C871        S875   1.802       .  S
C872        C873   1.419       .  A
C873        C874   1.413       .  A
C873        H880   1.068       .  S
C874        S876   1.817       .  S
S875        H878   1.407       .  S
S876        H877   1.408       .  S
C881        C882   1.404       .  A
C881        C886   1.447       .  A
C882        C883   1.401   1_556  A
C882        H891   1.053       .  S
C883        C884   1.428       .  A
C883        S887   1.800       .  S
C884        C885   1.420       .  A
C885        C886   1.437   1_554  A
C885        H892   1.078       .  S
C886        S888   1.805       .  S
S887        H890   1.407       .  S
S888        H889   1.407       .  S
C893        C894   1.391       .  A
C893        C898   1.395       .  A
C894        C895   1.395       .  A
C894        H903   1.085       .  S
C895        C896   1.448       .  A
C895        S899   1.818       .  S
C896        C897   1.420       .  A
C897        C898   1.382       .  A
C897        H904   1.082       .  S
C898        S900   1.805       .  S
S899        H902   1.393       .  S
S900        H901   1.406       .  S
C905        C906   1.424       .  A
C905        C910   1.433       .  A
C906        C907   1.388       .  A
C906        H915   1.074       .  S
C907        C908   1.405       .  A
C907        S911   1.813       .  S
C908        C909   1.398       .  A
C909        C910   1.397       .  A
C909        H916   1.082       .  S
C910        S912   1.805       .  S
S911        H914   1.407       .  S
S912        H913   1.406       .  S
C917        C918   1.392       .  A
C917        C922   1.403       .  A
C918        C919   1.393       .  A
C918        H927   1.084       .  S
C919        C920   1.440       .  A
C919        S923   1.812       .  S
C920        C921   1.417       .  A
C921        C922   1.381       .  A
C921        H928   1.081       .  S
C922        S924   1.808       .  S
S923        H926   1.408       .  S
S924        H925   1.407       .  S
C929        C930   1.408       .  A
C929        C934   1.433       .  A
C930        C931   1.387   1_655  A
C930        H939   1.085       .  S
C931        C932   1.432       .  A
C931        S935   1.812       .  S
C932        C933   1.408       .  A
C933        C934   1.394   1_455  A
C933        H940   1.073       .  S
C934        S936   1.817       .  S
S935        H938   1.384       .  S
S936        H937   1.408       .  S
C941        C942   1.428       .  A
C941        C946   1.447       .  A
C942        C943   1.387       .  A
C942        H951   1.068       .  S
C943        C944   1.398       .  A
C943        S947   1.808       .  S
C944        C945   1.402       .  A
C945        C946   1.410       .  A
C945        H952   1.084       .  S
C946        S948   1.819       .  S
S947        H950   1.408       .  S
S948        H949   1.388       .  S
C953        C954   1.417       .  A
C953        C958   1.428       .  A
C954        C955   1.389       .  A
C954        H963   1.076       .  S
C955        C956   1.404       .  A
C955        S959   1.809       .  S
C956        C957   1.399       .  A
C957        C958   1.395       .  A
C957        H964   1.083       .  S
C958        S960   1.812       .  S
S959        H962   1.407       .  S
S960        H961   1.407       .  S
C965        C966   1.410       .  A
C965        C970   1.426       .  A
C966        C967   1.403       .  A
C966        H975   1.074       .  S
C967        C968   1.441       .  A
C967        S971   1.811       .  S
C968        C969   1.416       .  A
C969        C970   1.386       .  A
C969        H976   1.084       .  S
C970        S972   1.810       .  S
S971        H974   1.409       .  S
S972        H973   1.408       .  S
C977        C978   1.413       .  A
C977        C982   1.451       .  A
C978        C979   1.396       .  A
C978        H987   1.079       .  S
C979        C980   1.416       .  A
C979        S983   1.805       .  S
C980        C981   1.380       .  A
C981        C982   1.393       .  A
C981        H988   1.084       .  S
C982        S984   1.797       .  S
S983        H986   1.408       .  S
S984        H985   1.409       .  S
C989        C990   1.432       .  A
C989        C994   1.448       .  A
C990        C991   1.405       .  A
C990        H999   1.083       .  S
C991        C992   1.403       .  A
C991        S995   1.799       .  S
C992        C993   1.403       .  A
C993        C994   1.398       .  A
C993       H1000   1.085       .  S
C994        S996   1.820       .  S
S995        H998   1.407       .  S
S996        H997   1.390       .  S
C1001      C1002   1.410       .  A
C1001      C1006   1.421       .  A
C1002      C1003   1.395       .  A
C1002      H1011   1.076       .  S
C1003      C1004   1.429       .  A
C1003      S1007   1.815       .  S
C1004      C1005   1.407       .  A
C1005      C1006   1.381       .  A
C1005      H1012   1.079       .  S
C1006      S1008   1.794       .  S
S1007      H1010   1.407       .  S
S1008      H1009   1.407       .  S
C1013      C1014   1.413       .  A
C1013      C1018   1.425       .  A
C1014      C1015   1.386   1_655  A
C1014      H1023   1.078       .  S
C1015      C1016   1.411       .  A
C1015      S1019   1.807       .  S
C1016      C1017   1.417       .  A
C1017      C1018   1.419   1_455  A
C1017      H1024   1.073       .  S
C1018      S1020   1.806       .  S
S1019      H1022   1.395   1_455  S
S1020      H1021   1.408       .  S
C1025      C1026   1.396       .  A
C1025      C1030   1.399       .  A
C1026      C1027   1.392       .  A
C1026      H1035   1.083       .  S
C1027      C1028   1.431       .  A
C1027      S1031   1.809       .  S
C1028      C1029   1.422       .  A
C1029      C1030   1.385       .  A
C1029      H1036   1.076       .  S
C1030      S1032   1.807       .  S
S1031      H1034   1.407       .  S
S1032      H1033   1.408       .  S
C1037      C1038   1.401       .  A
C1037      C1042   1.413       .  A
C1038      C1039   1.393       .  A
C1038      H1047   1.081       .  S
C1039      C1040   1.435       .  A
C1039      S1043   1.809       .  S
C1040      C1041   1.422       .  A
C1041      C1042   1.409       .  A
C1041      H1048   1.080       .  S
C1042      S1044   1.800       .  S
S1043      H1046   1.407       .  S
S1044      H1045   1.407       .  S
C1049      C1050   1.399       .  A
C1049      C1054   1.405       .  A
C1050      C1051   1.401       .  A
C1050      H1059   1.083       .  S
C1051      C1052   1.446       .  A
C1051      S1055   1.813       .  S
C1052      C1053   1.431       .  A
C1053      C1054   1.410       .  A
C1053      H1060   1.080       .  S
C1054      S1056   1.799       .  S
S1055      H1058   1.408       .  S
S1056      H1057   1.405       .  S
C1061      C1062   1.400       .  A
C1061      C1066   1.406       .  A
C1062      C1063   1.391       .  A
C1062      H1071   1.082       .  S
C1063      C1064   1.429       .  A
C1063      S1067   1.814       .  S
C1064      C1065   1.416       .  A
C1065      C1066   1.381       .  A
C1065      H1072   1.081       .  S
C1066      S1068   1.806       .  S
S1067      H1070   1.396       .  S
S1068      H1069   1.407       .  S
C1073      C1074   1.401       .  A
C1073      C1078   1.408       .  A
C1074      C1075   1.412       .  A
C1074      H1083   1.082       .  S
C1075      C1076   1.431       .  A
C1075      S1079   1.802       .  S
C1076      C1077   1.414       .  A
C1077      C1078   1.386       .  A
C1077      H1084   1.073       .  S
C1078      S1080   1.804       .  S
S1079      H1082   1.407       .  S
S1080      H1081   1.408       .  S
C1085      C1086   1.428       .  A
C1085      C1090   1.449       .  A
C1086      C1087   1.417       .  A
C1086      H1095   1.083       .  S
C1087      C1088   1.408       .  A
C1087      S1091   1.800       .  S
C1088      C1089   1.391       .  A
C1089      C1090   1.408       .  A
C1089      H1096   1.084       .  S
C1090      S1092   1.804       .  S
S1091      H1094   1.406       .  S
S1092      H1093   1.408       .  S
