geometry optimzed in LAMMPS
_audit_creation_date              2020-11-30 
_audit_creation_method            'lammps2cif' 
_symmetry_space_group_name_H-M    'P1' 
_symmetry_Int_Tables_number       1 
_symmetry_cell_setting            triclinic 
loop_ 
_symmetry_equiv_pos_as_xyz 
  x,y,z 
_cell_length_a                    39.65680806 
_cell_length_b                    39.7447893908775 
_cell_length_c                    28.364496456126997 
_cell_angle_alpha                 89.91476203849072 
_cell_angle_beta                  89.99386424328928 
_cell_angle_gamma                 119.89543323766652 
loop_ 
_atom_site_label 
_atom_site_type_symbol 
_atom_site_fract_x 
_atom_site_fract_y 
_atom_site_fract_z 
_atom_site_charge 
Fe1        Fe  0.44365931  0.55542131  0.38129173     1.65800
Fe2        Fe  0.49537895  0.51026850  0.35577348     1.73200
Fe3        Fe  0.46190429  0.54461931  0.26569244     1.54400
O4          O  0.40271027  0.52634892  0.26964570    -0.81400
O5          O  0.54095116  0.54006902  0.30966102    -0.79700
O6          O  0.39260286  0.53406015  0.34503382    -0.83900
O7          O  0.46687064  0.60872758  0.34959933    -0.78800
O8          O  0.44619939  0.48778670  0.24953728    -0.80500
O9          O  0.52789390  0.55304804  0.40519515    -0.83300
C10         C  0.47737807  0.62257639  0.30848795     0.97500
C11         C  0.38054064  0.52392987  0.30335851     1.04900
O12         O  0.46701806  0.53673933  0.33410458    -1.12300
O13         O  0.45268756  0.47567140  0.40433230    -0.74700
O14         O  0.41794372  0.50460057  0.41853116    -0.78200
O15         O  0.47649619  0.60231758  0.27345651    -0.78900
C16         C  0.42464326  0.47694474  0.42410390     0.96400
O17         O  0.49111939  0.57872341  0.42461484    -0.76800
O18         O  0.46720774  0.46547166  0.30831838    -0.82000
C19         C  0.54667649  0.55941090  0.27202635     0.99000
C20         C  0.44996916  0.46109582  0.26920658     1.04900
O21         O  0.52045641  0.56411374  0.25247146    -0.77700
C22         C  0.52161795  0.57643064  0.42894563     1.03200
Fe23       Fe  0.44623621  0.88552714  0.38356221     1.65800
Fe24       Fe  0.49469565  0.98179282  0.35508528     1.73200
Fe25       Fe  0.45692929  0.91260625  0.26718819     1.54400
O26         O  0.47531540  0.87199890  0.27215204    -0.81400
O27         O  0.46565487  0.99789831  0.30765640    -0.79700
O28         O  0.46679960  0.85457024  0.34797613    -0.83900
O29         O  0.39249902  0.85495482  0.35256826    -0.78800
O30         O  0.51288512  0.95347812  0.24837304    -0.80500
O31         O  0.45251623  0.97408514  0.40452570    -0.83300
C32         C  0.37928123  0.85037399  0.31104760     0.97500
C33         C  0.47659077  0.85188932  0.30623967     1.04900
O34         O  0.46604029  0.92669033  0.33520510    -1.12300
O35         O  0.52840482  0.97351003  0.40529100    -0.74700
O36         O  0.49661605  0.91034215  0.42180297    -0.78200
O37         O  0.39977869  0.86941295  0.27603883    -0.78900
C38         C  0.52496230  0.94424402  0.42761766     0.96400
O39         O  0.42383127  0.91166008  0.42518389    -0.76800
O40         O  0.53928755  0.99580704  0.30740314    -0.82000
C41         C  0.44428907  0.98337999  0.27155928     0.99000
C42         C  0.54120606  0.98301284  0.26708283     1.04900
O43         O  0.43705951  0.95113143  0.25383478    -0.77700
C44         C  0.42807522  0.94527275  0.42877491     1.03200
Fe45       Fe  0.11718744  0.54832712  0.37963415     1.65800
Fe46       Fe  0.02140742  0.50939268  0.35219621     1.73200
Fe47       Fe  0.09015187  0.53968466  0.26366359     1.54400
O48         O  0.13262551  0.59722032  0.27198846    -0.81400
O49         O  0.00173714  0.46689112  0.30084028    -0.79700
O50         O  0.15291685  0.59966852  0.34589118    -0.83900
O51         O  0.14190495  0.51994523  0.34641481    -0.78800
O52         O  0.05151888  0.55905697  0.24750950    -0.80500
O53         O  0.02447625  0.46974841  0.39756439    -0.83300
C54         C  0.14727822  0.51454725  0.30373755     0.97500
C55         C  0.15470038  0.61532547  0.30633787     1.04900
O56         O  0.07618417  0.53242644  0.33173637    -1.12300
O57         O  0.03375864  0.55010250  0.40560479    -0.74700
O58         O  0.09743919  0.57822375  0.41894321    -0.78200
O59         O  0.13133148  0.52204237  0.26962146    -0.78900
C60         C  0.06456682  0.57518270  0.42623049     0.96400
O61         O  0.08649440  0.49984760  0.42017991    -0.76800
O62         O  0.01190960  0.54542967  0.30921439    -0.82000
C63         C  0.01562102  0.45966879  0.26438809     0.99000
C64         C  0.02427276  0.56065197  0.26904674     1.04900
O65         O  0.04919189  0.48289068  0.24802459    -0.77700
C66         C  0.05202646  0.47179135  0.42244911     1.03200
Fe67       Fe  0.45088808  0.22296428  0.04615154     1.65800
Fe68       Fe  0.35386584  0.17751804  0.02227852     1.73200
Fe69       Fe  0.42068476  0.21258638  0.93103192     1.54400
O70         O  0.46457177  0.27005727  0.93846250    -0.81400
O71         O  0.33714315  0.13281400  0.97473470    -0.79700
O72         O  0.48128672  0.27618141  0.01426344    -0.83900
O73         O  0.47977635  0.20088039  0.00892948    -0.78800
O74         O  0.38244669  0.23293516  0.91930149    -0.80500
O75         O  0.36221028  0.14285417  0.07097504    -0.83300
C76         C  0.48113903  0.19123606  0.96673320     0.97500
C77         C  0.48453426  0.29011124  0.97328595     1.04900
O78         O  0.40841644  0.20428971  0.99971351    -1.12300
O79         O  0.36418054  0.21997926  0.07222073    -0.74700
O80         O  0.42714299  0.24667803  0.08958673    -0.78200
O81         O  0.46088501  0.19378572  0.93382729    -0.78900
C82         C  0.39410596  0.24362700  0.09535235     0.96400
O83         O  0.42592171  0.17280188  0.08469042    -0.76800
O84         O  0.33799501  0.20759264  0.97647006    -0.82000
C85         C  0.34894094  0.12896113  0.93457902     0.99000
C86         C  0.35153867  0.22765960  0.93921506     1.04900
O87         O  0.37870250  0.15605747  0.91427826    -0.77700
C88         C  0.39177543  0.14511310  0.09140468     1.03200
Fe89       Fe  0.76913847  0.22201033  0.03693791     1.65800
Fe90       Fe  0.82409520  0.17970649  0.01635747     1.73200
Fe91       Fe  0.79189674  0.21239485  0.92297810     1.54400
O92         O  0.73283467  0.19467706  0.92302640    -0.81400
O93         O  0.87100845  0.21030665  0.97212771    -0.79700
O94         O  0.71972350  0.20074904  0.99767167    -0.83900
O95         O  0.79340341  0.27561617  0.00586958    -0.78800
O96         O  0.77662675  0.15544009  0.90829910    -0.80500
O97         O  0.85422997  0.22272829  0.06601008    -0.83300
C98         C  0.80619469  0.29000642  0.96545949     0.97500
C99         C  0.70945456  0.19182063  0.95533630     1.04900
O100        O  0.79504908  0.20462753  0.99192158    -1.12300
O101        O  0.78071186  0.14469168  0.06419222    -0.74700
O102        O  0.74263066  0.17069302  0.07297922    -0.78200
O103        O  0.80662953  0.27015712  0.93062754    -0.78900
C104        C  0.75113924  0.14460388  0.08149943     0.96400
O105        O  0.81445203  0.24527493  0.08350076    -0.76800
O106        O  0.79804688  0.13495533  0.96875633    -0.82000
C107        C  0.87688552  0.22837041  0.93341724     0.99000
C108        C  0.78114916  0.12963733  0.92918271     1.04900
O109        O  0.85048151  0.23152986  0.91203622    -0.77700
C110        C  0.84569357  0.24461873  0.08941275     1.03200
Fe111      Fe  0.78440347  0.55461457  0.05192030     1.65800
Fe112      Fe  0.82949213  0.65082192  0.02408511     1.73200
Fe113      Fe  0.79312611  0.58208962  0.93557297     1.54400
O114        O  0.81021569  0.54065834  0.94008348    -0.81400
O115        O  0.79803646  0.66549470  0.97920575    -0.79700
O116        O  0.80718426  0.52565913  0.01630176    -0.83900
O117        O  0.73083672  0.52242431  0.02055816    -0.78800
O118        O  0.85013568  0.62202071  0.91740231    -0.80500
O119        O  0.78857817  0.64173722  0.07624981    -0.83300
C120        C  0.71596366  0.51938392  0.98009985     0.97500
C121        C  0.81462267  0.52218579  0.97378536     1.04900
O122        O  0.80222708  0.59586868  0.00376353    -1.12300
O123        O  0.86587887  0.64387066  0.07081720    -0.74700
O124        O  0.83513026  0.58120786  0.08990314    -0.78200
O125        O  0.73523190  0.53983313  0.94504879    -0.78900
C126        C  0.86375922  0.61525266  0.09318811     0.96400
O127        O  0.76017025  0.57878640  0.09398639    -0.76800
O128        O  0.87294891  0.66633909  0.97467653    -0.82000
C129        C  0.77911925  0.65227871  0.94121055     0.99000
C130        C  0.87711997  0.65270242  0.93606333     1.04900
O131        O  0.77451619  0.62157646  0.92157687    -0.77700
C132        C  0.76437149  0.61223638  0.09975764     1.03200
Fe133      Fe  0.78696131  0.89188005  0.71300004     1.65800
Fe134      Fe  0.69019182  0.84408996  0.68684614     1.73200
Fe135      Fe  0.75833284  0.87825404  0.59722555     1.54400
O136        O  0.80063245  0.93610732  0.60321661    -0.81400
O137        O  0.67400234  0.79931340  0.63949519    -0.79700
O138        O  0.81784925  0.94381764  0.67877391    -0.83900
O139        O  0.81598146  0.86808857  0.67977767    -0.78800
O140        O  0.71932990  0.89722796  0.58280647    -0.80500
O141        O  0.69862393  0.80977414  0.73596132    -0.83300
C142        C  0.81849212  0.85818538  0.63811655     0.97500
C143        C  0.82029506  0.95698375  0.63754162     1.04900
O144        O  0.74509067  0.87129171  0.66558943    -1.12300
O145        O  0.69922015  0.88643222  0.73623984    -0.74700
O146        O  0.76271078  0.91738246  0.75195709    -0.78200
O147        O  0.79945197  0.86081623  0.60370955    -0.78900
C148        C  0.72897766  0.91254991  0.75738686     0.96400
O149        O  0.76146334  0.84347753  0.75450053    -0.76800
O150        O  0.67503143  0.87429263  0.64039080    -0.82000
C151        C  0.68704493  0.79476346  0.60064932     0.99000
C152        C  0.68890225  0.89343182  0.60262271     1.04900
O153        O  0.71779387  0.82125111  0.58139300    -0.77700
C154        C  0.72795184  0.81427306  0.75925492     1.03200
Fe155      Fe  0.11040685  0.88853217  0.71406881     1.65800
Fe156      Fe  0.16144288  0.84310972  0.68719417     1.73200
Fe157      Fe  0.12390674  0.87368269  0.59797887     1.54400
O158        O  0.06593277  0.85807965  0.60603455    -0.81400
O159        O  0.20674453  0.87510206  0.64148700    -0.79700
O160        O  0.05675270  0.86177100  0.68296300    -0.83900
O161        O  0.12782771  0.93933145  0.67773081    -0.78800
O162        O  0.10537603  0.81549995  0.58447217    -0.80500
O163        O  0.19299162  0.88497965  0.73812774    -0.83300
C164        C  0.13913274  0.95257779  0.63656039     0.97500
C165        C  0.04421832  0.85350723  0.64112798     1.04900
O166        O  0.13209133  0.86859653  0.66627000    -1.12300
O167        O  0.11836926  0.80692643  0.73447156    -0.74700
O168        O  0.09038955  0.84084071  0.75716401    -0.78200
O169        O  0.14066487  0.93222341  0.60302492    -0.78900
C170        C  0.09413916  0.81110228  0.75939983     0.96400
O171        O  0.16115772  0.91706500  0.75121438    -0.76800
O172        O  0.13500810  0.79883356  0.63883715    -0.82000
C173        C  0.20948779  0.88996785  0.60107435     0.99000
C174        C  0.11377155  0.79130831  0.60251933     1.04900
O175        O  0.18113100  0.89038924  0.58068225    -0.77700
C176        C  0.18970229  0.91183562  0.75797831     1.03200
Fe177      Fe  0.11017585  0.21914251  0.71359489     1.65800
Fe178      Fe  0.15994729  0.31516628  0.68520257     1.73200
Fe179      Fe  0.12516352  0.24611236  0.59693400     1.54400
O180        O  0.14135367  0.20417211  0.60428359    -0.81400
O181        O  0.13096298  0.33055122  0.63714503    -0.79700
O182        O  0.13113943  0.18744988  0.68018587    -0.83900
O183        O  0.05748204  0.18986364  0.67992304    -0.78800
O184        O  0.18232445  0.28552889  0.58094540    -0.80500
O185        O  0.11759421  0.30809907  0.73400705    -0.83300
C186        C  0.04542214  0.18639724  0.63789683     0.97500
C187        C  0.14165528  0.18420702  0.63901959     1.04900
O188        O  0.13182182  0.26017627  0.66516756    -1.12300
O189        O  0.19313353  0.30661981  0.73551793    -0.74700
O190        O  0.15978105  0.24368499  0.75352247    -0.78200
O191        O  0.06723154  0.20477541  0.60347756    -0.78900
C192        C  0.18890759  0.27728789  0.75838663     0.96400
O193        O  0.08693201  0.24553853  0.75379978    -0.76800
O194        O  0.20514367  0.32917041  0.63892942    -0.82000
C195        C  0.11193244  0.31650760  0.59936071     0.99000
C196        C  0.20940049  0.31556433  0.60038322     1.04900
O197        O  0.10738802  0.28556524  0.58066710    -0.77700
C198        C  0.09211593  0.27949606  0.75757201     1.03200
C199        C  0.16447774  0.04959502  0.64812618     0.30000
C200        C  0.17228941  0.08231389  0.67453296    -0.36300
C201        C  0.16699080  0.11033106  0.65138968     0.16000
C202        C  0.15508981  0.10687816  0.60504840     0.21800
C203        C  0.14822500  0.07433231  0.57797551    -0.34400
C204        C  0.15332651  0.04588947  0.60143555     0.15900
O205        O  0.16261805  0.01799933  0.66522189    -0.26400
C206        C  0.15070782  0.99353121  0.62913913     0.05700
C207        C  0.14473023  0.00930904  0.58816611    -0.31300
O208        O  0.14695480  0.13424333  0.59292398    -0.23200
C209        C  0.15372171  0.15508071  0.63220177    -0.03100
C210        C  0.16658359  0.14165838  0.66932364    -0.17600
H211        H  0.17943222  0.08452529  0.71165834     0.20400
H212        H  0.13729985  0.07029733  0.54225222     0.18800
H213        H  0.13263379  0.99486180  0.55501036     0.18700
H214        H  0.17173075  0.15164989  0.70550398     0.14600
C215        C  0.94762461  0.11722938  0.64651424     0.30000
C216        C  0.91468395  0.09165077  0.67221088    -0.36300
C217        C  0.88838828  0.05764458  0.64902610     0.16000
C218        C  0.89346635  0.04940592  0.60313911     0.21800
C219        C  0.92587989  0.07591430  0.57660331    -0.34400
C220        C  0.95274503  0.10988084  0.60022795     0.15900
O221        O  0.97887566  0.14662353  0.66457311    -0.26400
C222        C  0.00436858  0.15876622  0.62948729     0.05700
C223        C  0.98967311  0.13747115  0.58821787    -0.31300
O224        O  0.86838060  0.01318045  0.59137462    -0.23200
C225        C  0.84743425  0.99840998  0.63042545    -0.03100
C226        C  0.85837550  0.02488555  0.66703752    -0.17600
H227        H  0.91159193  0.09625180  0.70921008     0.20400
H228        H  0.93146523  0.06903919  0.54157498     0.18800
H229        H  0.00527158  0.13931240  0.55610680     0.18700
H230        H  0.84787884  0.01967852  0.70305691     0.14600
C231        C  0.95329576  0.83793485  0.60596932     0.30000
C232        C  0.92847449  0.84633232  0.57947738    -0.36300
C233        C  0.89446977  0.84016918  0.60236023     0.16000
C234        C  0.88553833  0.82644769  0.64806250     0.21800
C235        C  0.90953842  0.81674508  0.67384184    -0.34400
C236        C  0.94362084  0.82334844  0.65124605     0.15900
O237        O  0.98939308  0.84783641  0.59483400    -0.26400
C238        C  0.00281652  0.83957815  0.63354440     0.05700
C239        C  0.97545515  0.82385271  0.66946736    -0.31300
O240        O  0.85618485  0.82900133  0.66544052    -0.23200
C241        C  0.84566246  0.84395192  0.63034160    -0.03100
C242        C  0.86809627  0.85110742  0.58993036    -0.17600
H243        H  0.93665198  0.85976147  0.54500963     0.20400
H244        H  0.90373872  0.80790938  0.71044042     0.18800
H245        H  0.97970183  0.81737958  0.70535042     0.18700
H246        H  0.86766539  0.86597804  0.55812607     0.14600
C247        C  0.73626325  0.69257596  0.86877883     0.30000
C248        C  0.71608647  0.69535172  0.82947476    -0.36300
C249        C  0.71953722  0.73189762  0.82149769     0.16000
C250        C  0.74180447  0.76347633  0.84999246     0.21800
C251        C  0.76110865  0.76048462  0.88968668    -0.34400
C252        C  0.75729052  0.72404500  0.89788500     0.15900
O253        O  0.74002430  0.66241463  0.88069138    -0.26400
C254        C  0.76334091  0.67477196  0.91822432     0.05700
C255        C  0.77466754  0.71277943  0.93056923    -0.31300
O256        O  0.74538938  0.79589908  0.83303910    -0.23200
C257        C  0.72447767  0.78514142  0.79366265    -0.03100
C258        C  0.70736460  0.74553389  0.78473341    -0.17600
H259        H  0.70022426  0.67121246  0.80563983     0.20400
H260        H  0.77941132  0.78540746  0.91147175     0.18800
H261        H  0.79472415  0.73033182  0.95801545     0.18700
H262        H  0.69163103  0.72993680  0.75354201     0.14600
C263        C  0.03025395  0.75700361  0.84916340     0.30000
C264        C  0.00975678  0.75301329  0.89092229    -0.36300
C265        C  0.97378562  0.71897642  0.89539229     0.16000
C266        C  0.95882518  0.69050461  0.86125160     0.21800
C267        C  0.97993332  0.69399053  0.81986731    -0.34400
C268        C  0.01612854  0.72822395  0.81534066     0.15900
O269        O  0.06138866  0.78891305  0.83500190    -0.26400
C270        C  0.06813318  0.78041184  0.79199336     0.05700
C271        C  0.04107640  0.74291391  0.77790833    -0.31300
O272        O  0.92295153  0.66283484  0.87106519    -0.23200
C273        C  0.91508809  0.67385621  0.91205383    -0.03100
C274        C  0.94581066  0.70841195  0.92886510    -0.17600
H275        H  0.02008978  0.77596754  0.91691452     0.20400
H276        H  0.96808106  0.67252573  0.79207652     0.18800
H277        H  0.03775766  0.73010991  0.74334255     0.18700
H278        H  0.94676023  0.72429703  0.96029803     0.14600
C279        C  0.02989552  0.27279079  0.84862561     0.30000
C280        C  0.00961380  0.25757583  0.89100598    -0.36300
C281        C  0.97427919  0.25731852  0.89570499     0.16000
C282        C  0.95991947  0.27125588  0.86114062     0.21800
C283        C  0.98086477  0.28766496  0.81939487    -0.34400
C284        C  0.01624955  0.28792417  0.81464153     0.15900
O285        O  0.06010845  0.27027137  0.83396686    -0.26400
C286        C  0.06661417  0.28486348  0.79050787     0.05700
C287        C  0.04041598  0.29661434  0.77669098    -0.31300
O288        O  0.92430690  0.26408152  0.87046772    -0.23200
C289        C  0.91579786  0.24550801  0.91166704    -0.03100
C290        C  0.94599284  0.24079815  0.92920113    -0.17600
H291        H  0.01945285  0.24451052  0.91719123     0.20400
H292        H  0.96924489  0.29741499  0.79132503     0.18800
H293        H  0.03709793  0.30610577  0.74206190     0.18700
H294        H  0.94612800  0.22534030  0.96062275     0.14600
C295        C  0.74351101  0.97952341  0.84432050     0.30000
C296        C  0.76314082  0.00266893  0.88310420    -0.36300
C297        C  0.76025140  0.03600578  0.88890069     0.16000
C298        C  0.73968771  0.04624146  0.85845866     0.21800
C299        C  0.71921700  0.02250558  0.82001994    -0.34400
C300        C  0.72182259  0.98874682  0.81439194     0.15900
O301        O  0.74639010  0.94980704  0.82946675    -0.26400
C302        C  0.72561165  0.93904607  0.79007716     0.05700
C303        C  0.70929465  0.96198561  0.77890967    -0.31300
O304        O  0.74374751  0.08047280  0.86868559    -0.23200
C305        C  0.76684975  0.09183489  0.90636485    -0.03100
C306        C  0.77778709  0.06520033  0.92056096    -0.17600
H307        H  0.78095584  0.99604196  0.90598647     0.20400
H308        H  0.70369748  0.03057963  0.79520213     0.18800
H309        H  0.69399503  0.96147654  0.74705816     0.18700
H310        H  0.79720359  0.06776642  0.94895166     0.14600
C311        C  0.82619648  0.38349077  0.93471744     0.30000
C312        C  0.82095352  0.41088183  0.90913967    -0.36300
C313        C  0.82870831  0.44471285  0.93367757     0.16000
C314        C  0.84111774  0.45110688  0.97999003     0.21800
C315        C  0.84756025  0.42448541  0.00489376    -0.34400
C316        C  0.83925547  0.39063054  0.98074224     0.15900
O317        O  0.81497417  0.34750089  0.92161959    -0.26400
C318        C  0.82084475  0.33170406  0.95994054     0.05700
C319        C  0.83614428  0.35729594  0.99749229    -0.31300
O320        O  0.84023846  0.48084187  0.99878635    -0.23200
C321        C  0.82750790  0.49414411  0.96418645    -0.03100
C322        C  0.82037689  0.47321846  0.92249533    -0.17600
H323        H  0.80872442  0.40487637  0.87398841     0.20400
H324        H  0.85526294  0.42837501  0.04190286     0.18800
H325        H  0.84123601  0.35119763  0.03319884     0.18700
H326        H  0.80688556  0.47590706  0.89062190     0.14600
C327        C  0.31189718  0.27216552  0.86885462     0.30000
C328        C  0.30894418  0.29202309  0.82933817    -0.36300
C329        C  0.27212861  0.28805252  0.82122732     0.16000
C330        C  0.24057620  0.26582622  0.85000358     0.21800
C331        C  0.24386042  0.24717897  0.89011883    -0.34400
C332        C  0.28045310  0.25125220  0.89824668     0.15900
O333        O  0.34190147  0.26789395  0.88013174    -0.26400
C334        C  0.32941510  0.24429362  0.91743601     0.05700
C335        C  0.29157029  0.23342618  0.93043240    -0.31300
O336        O  0.20780819  0.26116943  0.83265420    -0.23200
C337        C  0.21827613  0.28128764  0.79270236    -0.03100
C338        C  0.25806076  0.29907905  0.78381094    -0.17600
H339        H  0.33299382  0.30758123  0.80513851     0.20400
H340        H  0.21890927  0.22872850  0.91193172     0.18800
H341        H  0.27387386  0.21308367  0.95763173     0.18700
H342        H  0.27353922  0.31447976  0.75232405     0.14600
C343        C  0.24231753  0.97716898  0.84695139     0.30000
C344        C  0.24597757  0.99787151  0.88837708    -0.36300
C345        C  0.28036856  0.03351851  0.89306209     0.16000
C346        C  0.30930204  0.04799881  0.85930195     0.21800
C347        C  0.30602711  0.02680436  0.81822232    -0.34400
C348        C  0.27158970  0.99090391  0.81360314     0.15900
O349        O  0.21059208  0.94585357  0.83286118    -0.26400
C350        C  0.21979016  0.93868392  0.79044316     0.05700
C351        C  0.25746250  0.96562331  0.77661202    -0.31300
O352        O  0.33762200  0.08334718  0.86945169    -0.23200
C353        C  0.32669852  0.09137316  0.91038185    -0.03100
C354        C  0.29139235  0.06131388  0.92675579    -0.17600
H355        H  0.22276869  0.98774643  0.91413900     0.20400
H356        H  0.32801945  0.03823055  0.79088641     0.18800
H357        H  0.27087674  0.96841689  0.74250301     0.18700
H358        H  0.27550113  0.06062902  0.95813245     0.14600
C359        C  0.62379258  0.44384693  0.94649805     0.30000
C360        C  0.59688111  0.41300997  0.91812646    -0.36300
C361        C  0.56330533  0.38429991  0.94117648     0.16000
C362        C  0.55682510  0.38628498  0.98866565     0.21800
C363        C  0.58301070  0.41736105  0.01649285    -0.34400
C364        C  0.61652332  0.44550938  0.99377674     0.15900
O365        O  0.65927181  0.47111642  0.93424349    -0.26400
C366        C  0.67462515  0.49008627  0.97437946     0.05700
C367        C  0.64918788  0.47544590  0.01230959    -0.31300
O368        O  0.52700201  0.35432947  0.00483727    -0.23200
C369        C  0.51359594  0.33132240  0.96745314    -0.03100
C370        C  0.53468917  0.34851307  0.92647991    -0.17600
H371        H  0.60289573  0.41026118  0.88155110     0.20400
H372        H  0.57886791  0.41807636  0.05412757     0.18800
H373        H  0.65491579  0.48403249  0.04896031     0.18700
H374        H  0.53172473  0.33525908  0.89229034     0.14600
C375        C  0.55629529  0.17700698  0.92613581     0.30000
C376        C  0.58941197  0.18605677  0.89879022    -0.36300
C377        C  0.61667934  0.17769114  0.91944593     0.16000
C378        C  0.61121655  0.16126589  0.96372800     0.21800
C379        C  0.57794724  0.15144958  0.99037810    -0.34400
C380        C  0.55119373  0.16022165  0.97013264     0.15900
O381        O  0.53023252  0.18767118  0.91726579    -0.26400
C382        C  0.50857887  0.17769045  0.95622827     0.05700
C383        C  0.52018063  0.16029117  0.99002926    -0.31300
O384        O  0.64235897  0.16155974  0.97977053    -0.23200
C385        C  0.66833609  0.17793059  0.94547431    -0.03100
C386        C  0.65398289  0.18827155  0.90657186    -0.17600
H387        H  0.59492428  0.20121568  0.86546397     0.20400
H388        H  0.57470292  0.14065913  0.02612426     0.18800
H389        H  0.50943290  0.15207839  0.02571551     0.18700
H390        H  0.66994895  0.20509358  0.87608922     0.14600
C391        C  0.98776455  0.60564250  0.19441395     0.30000
C392        C  0.98297291  0.62093241  0.15179394    -0.36300
C393        C  0.94853715  0.62268237  0.14749541     0.16000
C394        C  0.92080695  0.61004050  0.18273969     0.21800
C395        C  0.92624732  0.59614356  0.22574259    -0.34400
C396        C  0.96048363  0.59444253  0.23000006     0.15900
O397        O  0.01496936  0.59663075  0.20386364    -0.26400
C398        C  0.00494751  0.57977187  0.24614380     0.05700
C399        C  0.97156090  0.57807855  0.26416895    -0.31300
O400        O  0.88829159  0.60827346  0.16895363    -0.23200
C401        C  0.89537510  0.62086915  0.12470393    -0.03100
C402        C  0.93249362  0.63054517  0.10940016    -0.17600
H403        H  0.00339822  0.62857091  0.12290110     0.20400
H404        H  0.90400666  0.58489104  0.25285279     0.18800
H405        H  0.95610182  0.56420271  0.29633882     0.18700
H406        H  0.94423853  0.63816927  0.07404196     0.14600
C407        C  0.92502107  0.31718042  0.15059256     0.30000
C408        C  0.96372535  0.34702554  0.15613965    -0.36300
C409        C  0.97030548  0.37439868  0.19140697     0.16000
C410        C  0.94089260  0.37215079  0.21966559     0.21800
C411        C  0.90233142  0.34242054  0.21415892    -0.34400
C412        C  0.89571525  0.31545626  0.17861110     0.15900
O413        O  0.91161967  0.29057167  0.11713645    -0.26400
C414        C  0.87330577  0.27186792  0.12382420     0.05700
C415        C  0.86184622  0.28607833  0.16160170    -0.31300
O416        O  0.95315098  0.40135095  0.24932613    -0.23200
C417        C  0.99090039  0.42285513  0.23990647    -0.03100
C418        C  0.00326226  0.40758999  0.20407315    -0.17600
H419        H  0.98682507  0.34953137  0.13342943     0.20400
H420        H  0.87887829  0.34116845  0.23509484     0.18800
H421        H  0.83256867  0.27754785  0.17293468     0.18700
H422        H  0.03211423  0.41951767  0.18913419     0.14600
C423        C  0.08278724  0.64397388  0.51374332     0.30000
C424        C  0.10426514  0.66878273  0.55063789    -0.36300
C425        C  0.09733100  0.69936241  0.55996583     0.16000
C426        C  0.07123982  0.70558675  0.53460087     0.21800
C427        C  0.04870444  0.67988118  0.49843313    -0.34400
C428        C  0.05545803  0.64888323  0.48923643     0.15900
O429        O  0.08808097  0.61637596  0.49597032    -0.26400
C430        C  0.06329251  0.60256572  0.46009764     0.05700
C431        C  0.04184259  0.62139822  0.45439850    -0.31300
O432        O  0.07260802  0.73849628  0.54645602    -0.23200
C433        C  0.09962045  0.75303523  0.58019081    -0.03100
C434        C  0.11555884  0.72961933  0.59017180    -0.17600
H435        H  0.12631217  0.66555711  0.56934964     0.20400
H436        H  0.02862297  0.68468348  0.47754323     0.18800
H437        H  0.02170748  0.61758811  0.42637758     0.18700
H438        H  0.13886043  0.73522671  0.61446062     0.14600
C439        C  0.06113983  0.41923367  0.51357475     0.30000
C440        C  0.08016886  0.41681473  0.55380126    -0.36300
C441        C  0.08145977  0.38257188  0.55915175     0.16000
C442        C  0.06491143  0.35238659  0.52730136     0.21800
C443        C  0.04486530  0.35438638  0.48741111    -0.34400
C444        C  0.04369586  0.38897095  0.48186587     0.15900
O445        O  0.06260223  0.45106668  0.49814797    -0.26400
C446        C  0.04534801  0.44133676  0.45634888     0.05700
C447        C  0.03249511  0.40283573  0.44438860    -0.31300
O448        O  0.07287454  0.32461891  0.53735561    -0.23200
C449        C  0.09461954  0.33736397  0.57615299    -0.03100
C450        C  0.10071020  0.37315781  0.59129278    -0.17600
H451        H  0.09524492  0.44110157  0.57768631     0.20400
H452        H  0.03304409  0.33158873  0.46116103     0.18800
H453        H  0.02140079  0.38885741  0.41071001     0.18700
H454        H  0.11815265  0.39046029  0.62067997     0.14600
C455        C  0.40322227  0.09291060  0.18247273     0.30000
C456        C  0.42136484  0.08953261  0.22314146    -0.36300
C457        C  0.41945652  0.05374217  0.22998695     0.16000
C458        C  0.40091511  0.02315101  0.19898317     0.21800
C459        C  0.38181353  0.02621696  0.15874506    -0.34400
C460        C  0.38365117  0.06216792  0.15187348     0.16800
O461        O  0.40617523  0.12531638  0.16631016    -0.26400
C462        C  0.38754343  0.11532222  0.12528703     0.05700
C463        C  0.37261976  0.07627129  0.11446985    -0.31300
O464        O  0.40613548  0.99371869  0.21002593    -0.23200
C465        C  0.42810936  0.00565042  0.24871929    -0.03100
C466        C  0.43700156  0.04268182  0.26280619    -0.17600
H467        H  0.43775942  0.11391394  0.24650106     0.20400
H468        H  0.36818803  0.00289513  0.13333072     0.18800
H469        H  0.35926273  0.06155636  0.08183037     0.18700
H470        H  0.45547776  0.05978850  0.29165155     0.14600
C471        C  0.67527541  0.06469660  0.13749985     0.30000
C472        C  0.63939333  0.03003580  0.13967463    -0.36300
C473        C  0.61899444  0.02267724  0.18240464     0.16000
C474        C  0.63295808  0.04761725  0.22040345     0.21800
C475        C  0.66890574  0.08198889  0.21837901    -0.34400
C476        C  0.68922414  0.08938248  0.17574379     0.15900
O477        O  0.69713622  0.07956280  0.09957820    -0.26400
C478        C  0.72559094  0.11389528  0.11409370     0.05700
C479        C  0.72201960  0.12154446  0.16097734    -0.31300
O480        O  0.60798142  0.03651146  0.25563850    -0.23200
C481        C  0.57760162  0.00394474  0.24015341    -0.03100
C482        C  0.58285353  0.99386391  0.19484425    -0.17600
H483        H  0.62741782  0.01102296  0.10951072     0.20400
H484        H  0.67954293  0.10240345  0.24736909     0.18800
H485        H  0.73930387  0.14832591  0.18014621     0.18700
H486        H  0.56237782  0.96969654  0.17351549     0.14600
C487        C  0.35175254  0.94959282  0.48350397     0.30000
C488        C  0.31632009  0.94959900  0.48388594    -0.36300
C489        C  0.29269562  0.93307194  0.52377076     0.16000
C490        C  0.30348131  0.91807251  0.56099469     0.21800
C491        C  0.33891189  0.91825182  0.56076220    -0.34400
C492        C  0.36223935  0.93428161  0.52070121     0.15900
O493        O  0.37589507  0.95903959  0.44742913    -0.26400
C494        C  0.40209863  0.94964771  0.46177341     0.05700
C495        C  0.39500220  0.93411934  0.50702712    -0.31300
O496        O  0.27611066  0.90193412  0.59334999    -0.23200
C497        C  0.24724182  0.90645814  0.57673231    -0.03100
C498        C  0.25590971  0.92566028  0.53349948    -0.17600
H499        H  0.30694138  0.95996528  0.45411320     0.20400
H500        H  0.34688154  0.90508129  0.58888284     0.18800
H501        H  0.40985705  0.92134999  0.52539409     0.18700
H502        H  0.23735559  0.93205950  0.51176934     0.14600
C503        C  0.62162406  0.92008994  0.56450109     0.30000
C504        C  0.58447107  0.91580293  0.56130407    -0.36300
C505        C  0.57786981  0.93345025  0.52240399     0.16000
C506        C  0.60610206  0.95477562  0.48924269     0.21800
C507        C  0.64368682  0.95975842  0.49303625    -0.34400
C508        C  0.65003653  0.94121433  0.53146126     0.15900
O509        O  0.63222287  0.90187269  0.59462729    -0.26400
C510        C  0.66779896  0.91105949  0.58070021     0.05700
C511        C  0.68059249  0.93573691  0.54174111    -0.31300
O512        O  0.59196657  0.96433744  0.45258084    -0.23200
C513        C  0.55427584  0.94873890  0.46252547    -0.03100
C514        C  0.54403090  0.92935630  0.50550401    -0.17600
H515        H  0.56143777  0.89760320  0.58564458     0.20400
H516        H  0.66555838  0.97466829  0.46610843     0.18800
H517        H  0.70753782  0.94630571  0.52235866     0.18700
H518        H  0.51514145  0.91193004  0.52017572     0.14600
C519        C  0.28356024  0.77548229  0.32175149     0.30000
C520        C  0.25132944  0.74839847  0.34744109    -0.36300
C521        C  0.22534906  0.71477520  0.32325236     0.16000
C522        C  0.23012738  0.70816727  0.27658287     0.21800
C523        C  0.26204583  0.73590054  0.25035361    -0.34400
C524        C  0.28845643  0.76960040  0.27484282     0.15900
O525        O  0.31401574  0.80593459  0.33966281    -0.26400
C526        C  0.33872199  0.82027883  0.30379588     0.05700
C527        C  0.32432067  0.79915307  0.26232821    -0.31300
O528        O  0.20449793  0.67260055  0.26297938    -0.23200
C529        C  0.18351680  0.65657419  0.30169729    -0.03100
C530        C  0.19506113  0.68155279  0.33995931    -0.17600
H531        H  0.24816411  0.75206013  0.38469268     0.20400
H532        H  0.26724087  0.73051748  0.21442435     0.18800
H533        H  0.33950425  0.80286998  0.22932238     0.18700
H534        H  0.18417644  0.67524208  0.37578018     0.14600
C535        C  0.64013209  0.58346468  0.23382276     0.30000
C536        C  0.67261094  0.57845799  0.23056627    -0.36300
C537        C  0.69828930  0.59782056  0.19331025     0.16000
C538        C  0.69299064  0.62126191  0.16173241     0.21800
C539        C  0.66069165  0.62677511  0.16550400    -0.34400
C540        C  0.63443304  0.60663968  0.20226944     0.15900
O541        O  0.61065422  0.56491454  0.26304419    -0.26400
C542        C  0.58542674  0.57600607  0.25004413     0.05700
C543        C  0.59869460  0.60206572  0.21242951    -0.31300
O544        O  0.71789998  0.63244176  0.12616758    -0.23200
C545        C  0.73915511  0.61572042  0.13511505    -0.03100
C546        C  0.72831262  0.59407808  0.17652206    -0.17600
H547        H  0.67631787  0.55884070  0.25372985     0.20400
H548        H  0.65510175  0.64355071  0.13976542     0.18800
H549        H  0.58358012  0.61457098  0.19413894     0.18700
H550        H  0.73879903  0.57544307  0.18997763     0.14600
C551        C  0.42669608  0.36903147  0.22814599     0.30000
C552        C  0.43077234  0.33611070  0.22490114    -0.36300
C553        C  0.41110299  0.31087232  0.18759260     0.16000
C554        C  0.38839050  0.31709590  0.15579482     0.21800
C555        C  0.38401698  0.34999859  0.15933295    -0.34400
C556        C  0.40431550  0.37570051  0.19632456     0.15900
O557        O  0.44489568  0.39769952  0.25828616    -0.26400
C558        C  0.43437498  0.42335157  0.24557188     0.05700
C559        C  0.40911746  0.41125883  0.20720117    -0.31300
O560        O  0.37633966  0.29196726  0.12061597    -0.23200
C561        C  0.39172987  0.26962829  0.13013756    -0.03100
C562        C  0.41343736  0.28001876  0.17140995    -0.17600
H563        H  0.44959908  0.33149568  0.24845638     0.20400
H564        H  0.36765479  0.35618090  0.13359882     0.18800
H565        H  0.39689870  0.42680901  0.18930962     0.18700
H566        H  0.43112676  0.26852804  0.18523344     0.14600
C567        C  0.61777810  0.70282977  0.55973449     0.30000
C568        C  0.58110805  0.66931414  0.55804135    -0.36300
C569        C  0.57425114  0.64487509  0.51938016     0.16000
C570        C  0.60168006  0.65251576  0.48480377     0.21800
C571        C  0.63849317  0.68615850  0.48652649    -0.34400
C572        C  0.64523804  0.71090329  0.52506410     0.15900
O573        O  0.62930728  0.73070577  0.59125500    -0.26400
C574        C  0.66459040  0.75719890  0.57666090     0.05700
C575        C  0.67608394  0.74647066  0.53560435    -0.31300
O576        O  0.58770118  0.62734412  0.44975450    -0.23200
C577        C  0.55090585  0.60343714  0.46216078    -0.03100
C578        C  0.54100789  0.61304693  0.50505568    -0.17600
H579        H  0.55887385  0.66346263  0.58414331     0.20400
H580        H  0.65979427  0.69333016  0.45877398     0.18800
H581        H  0.70274413  0.76296313  0.51575114     0.18700
H582        H  0.51259483  0.60009421  0.52152243     0.14600
C583        C  0.36171765  0.41905282  0.51245209     0.30000
C584        C  0.34351848  0.41248688  0.55651838    -0.36300
C585        C  0.30641199  0.37973860  0.55987910     0.16000
C586        C  0.28842164  0.35493247  0.52251230     0.21800
C587        C  0.30693777  0.36109295  0.47860564    -0.34400
C588        C  0.34412706  0.39393061  0.47521500     0.15900
O589        O  0.39406790  0.45049691  0.49996142    -0.26400
C590        C  0.39785138  0.44506618  0.45449503     0.05700
C591        C  0.36763551  0.41043606  0.43709174    -0.31300
O592        O  0.25231613  0.32820937  0.53230181    -0.23200
C593        C  0.24718765  0.33610004  0.57643242    -0.03100
C594        C  0.27995218  0.36768385  0.59546337    -0.17600
H595        H  0.35651208  0.43270389  0.58544995     0.20400
H596        H  0.29257609  0.34267243  0.44855189     0.18800
H597        H  0.36194005  0.40078377  0.40079756     0.18700
H598        H  0.28312346  0.38097496  0.62970106     0.14600
C599        C  0.50216683  0.78049155  0.31831408     0.30000
C600        C  0.50848243  0.75473677  0.34522188    -0.36300
C601        C  0.50349120  0.72170247  0.32192494     0.16000
C602        C  0.49329822  0.71431086  0.27498017     0.21800
C603        C  0.48787042  0.74080999  0.24747698    -0.34400
C604        C  0.49257340  0.77404637  0.27110628     0.15900
O605        O  0.49991556  0.80996631  0.33532930    -0.26400
C606        C  0.48915243  0.82327368  0.29879589     0.05700
C607        C  0.48447913  0.80237264  0.25749307    -0.31300
O608        O  0.48510735  0.67894028  0.26252385    -0.23200
C609        C  0.49009745  0.66389494  0.30219476    -0.03100
C610        C  0.50186975  0.68941036  0.33993944    -0.17600
H611        H  0.51417345  0.75882759  0.38272063     0.20400
H612        H  0.47814888  0.73470521  0.21123857     0.18800
H613        H  0.47324471  0.80530075  0.22389465     0.18700
H614        H  0.50553367  0.68376746  0.37640915     0.14600
C615        C  0.28759808  0.50425813  0.26838189     0.30000
C616        C  0.26084738  0.51019101  0.24220968    -0.36300
C617        C  0.22591197  0.50118825  0.26533060     0.16000
C618        C  0.21789616  0.48706000  0.31091552     0.21800
C619        C  0.24390027  0.47992334  0.33633723    -0.34400
C620        C  0.27879355  0.48935595  0.31356509     0.15900
O621        O  0.32426268  0.51629116  0.25690304    -0.26400
C622        C  0.33880971  0.50896854  0.29539417     0.05700
C623        C  0.31168875  0.49198678  0.33139952    -0.31300
O624        O  0.18735209  0.48716512  0.32885711    -0.23200
C625        C  0.17512202  0.50112212  0.29438888    -0.03100
C626        C  0.19761567  0.50978381  0.25365034    -0.17600
H627        H  0.26805379  0.52379067  0.20778027     0.20400
H628        H  0.23875027  0.47083580  0.37289662     0.18800
H629        H  0.31650649  0.48555140  0.36706609     0.18700
H630        H  0.19614218  0.52459037  0.22232460     0.14600
loop_ 
_geom_bond_atom_site_label_1 
_geom_bond_atom_site_label_2 
_geom_bond_distance 
_geom_bond_site_symmetry_2 
_ccdc_geom_bond_type 
Fe1          O17   2.044       .  S
Fe1           O7   2.048       .  S
Fe1          O14   2.043       .  S
Fe1           O6   2.041       .  S
Fe1          O12   1.972       .  S
Fe2           O5   2.059       .  S
Fe2           O9   2.083       .  S
Fe2          O13   2.080       .  S
Fe2          O18   2.063       .  S
Fe2          O12   1.982       .  S
Fe3          O21   2.083       .  S
Fe3           O8   2.074       .  S
Fe3          O15   2.079       .  S
Fe3           O4   2.086       .  S
Fe3          O12   1.992       .  S
O4           C11   1.270       .  A
O5           C19   1.267       .  A
O6           C11   1.264       .  A
O7           C10   1.267       .  A
O8           C20   1.271       .  A
O9           C22   1.270       .  A
C10          O15   1.269       .  A
C10         C609   1.468       .  S
C11         C622   1.471       .  S
O13          C16   1.269       .  A
O14          C16   1.263       .  A
C16         C590   1.460       .  S
O17          C22   1.263       .  A
O18          C20   1.269       .  A
C19          O21   1.272       .  A
C19         C542   1.474       .  S
C20         C558   1.470       .  S
C22         C577   1.466       .  S
Fe23         O39   2.046       .  S
Fe23         O29   2.053       .  S
Fe23         O36   2.045       .  S
Fe23         O28   2.050       .  S
Fe23         O34   1.972       .  S
Fe24         O27   2.068       .  S
Fe24         O31   2.085       .  S
Fe24         O35   2.088       .  S
Fe24         O40   2.069       .  S
Fe24         O34   1.982       .  S
Fe25         O43   2.076       .  S
Fe25         O30   2.062       .  S
Fe25         O37   2.066       .  S
Fe25         O26   2.081       .  S
Fe25         O34   1.992       .  S
O26          C33   1.271       .  A
O27          C41   1.270       .  A
O28          C33   1.267       .  A
O29          C32   1.265       .  A
O30          C42   1.268       .  A
O31          C44   1.271       .  A
C32          O37   1.266       .  A
C32         C526   1.464       .  S
C33         C606   1.467       .  S
O35          C38   1.270       .  A
O36          C38   1.264       .  A
C38         C513   1.469       .  S
O39          C44   1.265       .  A
O40          C42   1.270       .  A
C41          O43   1.270       .  A
C41         C465   1.476   1_565  S
C42         C481   1.470   1_565  S
C44         C494   1.465       .  S
Fe45         O61   2.043       .  S
Fe45         O51   2.056       .  S
Fe45         O58   2.049       .  S
Fe45         O50   2.049       .  S
Fe45         O56   1.967       .  S
Fe46         O49   2.068       .  S
Fe46         O53   2.083       .  S
Fe46         O57   2.091       .  S
Fe46         O62   2.052       .  S
Fe46         O56   1.977       .  S
Fe47         O65   2.068       .  S
Fe47         O52   2.080       .  S
Fe47         O59   2.080       .  S
Fe47         O48   2.070       .  S
Fe47         O56   1.989       .  S
O48          C55   1.268       .  A
O49          C63   1.270       .  A
O50          C55   1.267       .  A
O51          C54   1.266       .  A
O52          C64   1.270       .  A
O53          C66   1.269       .  A
C54          O59   1.270       .  A
C54         C625   1.470       .  S
C55         C529   1.464       .  S
O57          C60   1.271       .  A
O58          C60   1.265       .  A
C60         C430   1.472       .  S
O61          C66   1.263       .  A
O62          C64   1.268       .  A
C63          O65   1.270       .  A
C63         C417   1.469   1_455  S
C64         C398   1.472       .  S
C66         C446   1.462       .  S
Fe67         O83   2.043       .  S
Fe67         O73   2.050       .  S
Fe67         O80   2.045       .  S
Fe67         O72   2.049       .  S
Fe67         O78   1.970   1_554  S
Fe68         O71   2.061   1_554  S
Fe68         O75   2.089       .  S
Fe68         O79   2.084       .  S
Fe68         O84   2.064   1_554  S
Fe68         O78   1.981   1_554  S
Fe69         O87   2.078       .  S
Fe69         O74   2.070       .  S
Fe69         O81   2.072       .  S
Fe69         O70   2.081       .  S
Fe69         O78   1.995       .  S
O70          C77   1.269       .  A
O71          C85   1.269       .  A
O72          C77   1.265   1_554  A
O73          C76   1.267   1_554  A
O74          C86   1.268       .  A
O75          C88   1.270       .  A
C76          O81   1.268       .  A
C76         C382   1.465       .  S
C77         C369   1.468       .  S
O79          C82   1.270       .  A
O80          C82   1.265       .  A
C82         C561   1.466       .  S
O83          C88   1.263       .  A
O84          C86   1.269       .  A
C85          O87   1.271       .  A
C85         C353   1.473       .  S
C86         C334   1.472       .  S
C88         C462   1.467       .  S
Fe89        O105   2.044       .  S
Fe89         O95   2.048       .  S
Fe89        O102   2.041       .  S
Fe89         O94   2.036   1_554  S
Fe89        O100   1.968   1_554  S
Fe90         O93   2.062   1_554  S
Fe90         O97   2.075       .  S
Fe90        O101   2.084       .  S
Fe90        O106   2.057   1_554  S
Fe90        O100   1.981   1_554  S
Fe91        O109   2.076       .  S
Fe91         O96   2.074       .  S
Fe91        O103   2.079       .  S
Fe91         O92   2.083       .  S
Fe91        O100   1.993       .  S
O92          C99   1.268       .  A
O93         C107   1.267       .  A
O94          C99   1.261       .  A
O95          C98   1.268   1_554  A
O96         C108   1.271       .  A
O97         C110   1.268       .  A
C98         O103   1.271       .  A
C98         C318   1.466       .  S
C99         C385   1.465       .  S
O101        C104   1.270       .  A
O102        C104   1.263       .  A
C104        C478   1.461       .  S
O105        C110   1.263       .  A
O106        C108   1.270       .  A
C107        O109   1.269       .  A
C107        C289   1.475       .  S
C108        C305   1.467       .  S
C110        C414   1.465       .  S
Fe111       O127   2.048       .  S
Fe111       O117   2.058       .  S
Fe111       O124   2.052       .  S
Fe111       O116   2.050       .  S
Fe111       O122   1.973       .  S
Fe112       O115   2.059   1_554  S
Fe112       O119   2.090       .  S
Fe112       O123   2.077       .  S
Fe112       O128   2.062   1_554  S
Fe112       O122   1.980       .  S
Fe113       O131   2.078       .  S
Fe113       O118   2.078       .  S
Fe113       O125   2.078       .  S
Fe113       O114   2.073       .  S
Fe113       O122   1.994   1_556  S
O114        C121   1.269       .  A
O115        C129   1.269       .  A
O116        C121   1.265   1_554  A
O117        C120   1.268   1_554  A
O118        C130   1.270       .  A
O119        C132   1.271       .  A
C120        O125   1.269       .  A
C120        C366   1.472       .  S
C121        C321   1.465       .  S
O123        C126   1.267       .  A
O124        C126   1.264       .  A
C126        C401   1.464       .  S
O127        C132   1.266       .  A
O128        C130   1.270       .  A
C129        O131   1.270       .  A
C129        C254   1.474       .  S
C130        C273   1.474       .  S
C132        C545   1.471       .  S
Fe133       O149   2.040       .  S
Fe133       O139   2.048       .  S
Fe133       O146   2.037       .  S
Fe133       O138   2.044       .  S
Fe133       O144   1.971       .  S
Fe134       O137   2.062       .  S
Fe134       O141   2.089       .  S
Fe134       O145   2.081       .  S
Fe134       O150   2.062       .  S
Fe134       O144   1.981       .  S
Fe135       O153   2.072       .  S
Fe135       O140   2.071       .  S
Fe135       O147   2.074       .  S
Fe135       O136   2.070       .  S
Fe135       O144   1.991       .  S
O136        C143   1.266       .  A
O137        C151   1.268       .  A
O138        C143   1.264       .  A
O139        C142   1.266       .  A
O140        C152   1.270       .  A
O141        C154   1.271       .  A
C142        O147   1.270       .  A
C142        C241   1.462       .  S
C143        C225   1.464       .  S
O145        C148   1.269       .  A
O146        C148   1.263       .  A
C148        C302   1.459       .  S
O149        C154   1.262       .  A
O150        C152   1.269       .  A
C151        O153   1.270       .  A
C151        C574   1.471       .  S
C152        C510   1.470       .  S
C154        C257   1.466       .  S
Fe155       O171   2.043       .  S
Fe155       O161   2.054       .  S
Fe155       O168   2.052       .  S
Fe155       O160   2.046       .  S
Fe155       O166   1.972       .  S
Fe156       O159   2.060       .  S
Fe156       O163   2.087       .  S
Fe156       O167   2.081       .  S
Fe156       O172   2.060       .  S
Fe156       O166   1.977       .  S
Fe157       O175   2.080       .  S
Fe157       O162   2.084       .  S
Fe157       O169   2.082       .  S
Fe157       O158   2.074       .  S
Fe157       O166   1.991       .  S
O158        C165   1.268       .  A
O159        C173   1.268       .  A
O160        C165   1.266       .  A
O161        C164   1.267       .  A
O162        C174   1.271       .  A
O163        C176   1.270       .  A
C164        O169   1.271       .  A
C164        C206   1.469       .  S
C165        C238   1.464       .  S
O167        C170   1.269       .  A
O168        C170   1.264       .  A
C170        C270   1.466       .  S
O171        C176   1.263       .  A
O172        C174   1.269       .  A
C173        O175   1.272       .  A
C173        C497   1.472       .  S
C174        C433   1.477       .  S
C176        C350   1.464       .  S
Fe177       O193   2.054       .  S
Fe177       O183   2.053       .  S
Fe177       O190   2.048       .  S
Fe177       O182   2.055       .  S
Fe177       O188   1.970       .  S
Fe178       O181   2.062       .  S
Fe178       O185   2.084       .  S
Fe178       O189   2.081       .  S
Fe178       O194   2.061       .  S
Fe178       O188   1.979       .  S
Fe179       O197   2.066       .  S
Fe179       O184   2.063       .  S
Fe179       O191   2.061       .  S
Fe179       O180   2.074       .  S
Fe179       O188   1.996       .  S
O180        C187   1.268       .  A
O181        C195   1.270       .  A
O182        C187   1.268       .  A
O183        C186   1.266       .  A
O184        C196   1.267       .  A
O185        C198   1.270       .  A
C186        O191   1.266       .  A
C186        C222   1.460       .  S
C187        C209   1.469       .  S
O189        C192   1.269       .  A
O190        C192   1.265       .  A
C192        C337   1.465       .  S
O193        C198   1.265       .  A
O194        C196   1.268       .  A
C195        O197   1.268       .  A
C195        C449   1.469       .  S
C196        C593   1.467       .  S
C198        C286   1.468       .  S
C199        C204   1.381       .  A
C199        C200   1.396       .  A
C199        O205   1.313       .  A
C200        C201   1.395       .  A
C200        H211   1.083       .  S
C201        C210   1.353       .  A
C201        C202   1.380       .  A
C202        C203   1.410       .  A
C202        O208   1.324       .  A
C203        C204   1.410       .  A
C203        H212   1.082       .  S
C204        C207   1.371       .  A
O205        C206   1.327   1_545  A
C206        C207   1.395   1_565  A
C207        H213   1.082   1_545  S
O208        C209   1.334       .  A
C209        C210   1.387       .  A
C210        H214   1.083       .  S
C215        C220   1.382       .  A
C215        C216   1.395       .  A
C215        O221   1.312       .  A
C216        C217   1.394       .  A
C216        H227   1.083       .  S
C217        C226   1.351       .  A
C217        C218   1.382       .  A
C218        C219   1.406       .  A
C218        O224   1.322       .  A
C219        C220   1.406       .  A
C219        H228   1.083       .  S
C220        C223   1.364       .  A
O221        C222   1.326   1_655  A
C222        C223   1.392   1_455  A
C223        H229   1.083   1_655  S
O224        C225   1.332   1_545  A
C225        C226   1.386   1_565  A
C226        H230   1.083       .  S
C231        C236   1.382       .  A
C231        C232   1.404       .  A
C231        O237   1.320       .  A
C232        C233   1.404       .  A
C232        H243   1.082       .  S
C233        C242   1.364       .  A
C233        C234   1.382       .  A
C234        C235   1.398       .  A
C234        O240   1.314       .  A
C235        C236   1.397       .  A
C235        H244   1.083       .  S
C236        C239   1.355       .  A
O237        C238   1.330   1_655  A
C238        C239   1.389   1_455  A
C239        H245   1.083       .  S
O240        C241   1.328       .  A
C241        C242   1.390       .  A
C242        H246   1.083       .  S
C247        C252   1.380       .  A
C247        C248   1.408       .  A
C247        O253   1.323       .  A
C248        C249   1.407       .  A
C248        H259   1.083       .  S
C249        C258   1.369       .  A
C249        C250   1.381       .  A
C250        C251   1.399       .  A
C250        O256   1.314       .  A
C251        C252   1.398       .  A
C251        H260   1.084       .  S
C252        C255   1.357       .  A
O253        C254   1.334       .  A
C254        C255   1.390       .  A
C255        H261   1.084       .  S
O256        C257   1.329       .  A
C257        C258   1.393       .  A
C258        H262   1.083       .  S
C263        C268   1.381       .  A
C263        C264   1.400       .  A
C263        O269   1.316       .  A
C264        C265   1.399   1_455  A
C264        H275   1.083       .  S
C265        C274   1.357       .  A
C265        C266   1.380       .  A
C266        C267   1.408       .  A
C266        O272   1.323       .  A
C267        C268   1.407   1_655  A
C267        H276   1.083       .  S
C268        C271   1.367       .  A
O269        C270   1.329       .  A
C270        C271   1.393       .  A
C271        H277   1.083       .  S
O272        C273   1.334       .  A
C273        C274   1.390       .  A
C274        H278   1.083       .  S
C279        C284   1.381       .  A
C279        C280   1.404       .  A
C279        O285   1.318       .  A
C280        C281   1.403   1_455  A
C280        H291   1.084       .  S
C281        C290   1.362       .  A
C281        C282   1.380       .  A
C282        C283   1.405       .  A
C282        O288   1.321       .  A
C283        C284   1.405   1_655  A
C283        H292   1.083       .  S
C284        C287   1.366       .  A
O285        C286   1.331       .  A
C286        C287   1.391       .  A
C287        H293   1.083       .  S
O288        C289   1.332       .  A
C289        C290   1.393       .  A
C290        H294   1.083       .  S
C295        C300   1.381       .  A
C295        C296   1.397   1_565  A
C295        O301   1.312       .  A
C296        C297   1.396       .  A
C296        H307   1.084   1_545  S
C297        C306   1.355       .  A
C297        C298   1.381       .  A
C298        C299   1.406       .  A
C298        O304   1.321       .  A
C299        C300   1.405   1_545  A
C299        H308   1.083       .  S
C300        C303   1.367       .  A
O301        C302   1.327       .  A
C302        C303   1.392       .  A
C303        H309   1.083       .  S
O304        C305   1.332       .  A
C305        C306   1.388       .  A
C306        H310   1.083       .  S
C311        C316   1.381       .  A
C311        C312   1.406       .  A
C311        O317   1.323       .  A
C312        C313   1.406       .  A
C312        H323   1.082       .  S
C313        C322   1.366       .  A
C313        C314   1.382       .  A
C314        C315   1.397   1_556  A
C314        O320   1.313       .  A
C315        C316   1.396   1_554  A
C315        H324   1.083       .  S
C316        C319   1.353       .  A
O317        C318   1.332       .  A
C318        C319   1.388       .  A
C319        H325   1.083   1_556  S
O320        C321   1.327       .  A
C321        C322   1.392       .  A
C322        H326   1.083       .  S
C327        C332   1.380       .  A
C327        C328   1.408       .  A
C327        O333   1.322       .  A
C328        C329   1.407       .  A
C328        H339   1.083       .  S
C329        C338   1.368       .  A
C329        C330   1.381       .  A
C330        C331   1.398       .  A
C330        O336   1.314       .  A
C331        C332   1.397       .  A
C331        H340   1.084       .  S
C332        C335   1.356       .  A
O333        C334   1.334       .  A
C334        C335   1.389       .  A
C335        H341   1.083       .  S
O336        C337   1.327       .  A
C337        C338   1.393       .  A
C338        H342   1.083       .  S
C343        C348   1.381       .  A
C343        C344   1.401       .  A
C343        O349   1.316       .  A
C344        C345   1.400   1_565  A
C344        H355   1.083       .  S
C345        C354   1.359       .  A
C345        C346   1.380       .  A
C346        C347   1.406       .  A
C346        O352   1.322       .  A
C347        C348   1.406   1_545  A
C347        H356   1.083       .  S
C348        C351   1.366       .  A
O349        C350   1.329       .  A
C350        C351   1.392       .  A
C351        H357   1.083       .  S
O352        C353   1.333       .  A
C353        C354   1.391       .  A
C354        H358   1.083       .  S
C359        C364   1.380       .  A
C359        C360   1.410       .  A
C359        O365   1.324       .  A
C360        C361   1.409       .  A
C360        H371   1.082       .  S
C361        C370   1.370       .  A
C361        C362   1.381       .  A
C362        C363   1.397   1_556  A
C362        O368   1.313   1_556  A
C363        C364   1.396   1_554  A
C363        H372   1.083       .  S
C364        C367   1.355   1_556  A
O365        C366   1.334       .  A
C366        C367   1.388   1_556  A
C367        H373   1.083       .  S
O368        C369   1.327   1_554  A
C369        C370   1.395       .  A
C370        H374   1.082       .  S
C375        C380   1.381       .  A
C375        C376   1.408       .  A
C375        O381   1.322       .  A
C376        C377   1.408       .  A
C376        H387   1.082       .  S
C377        C386   1.370       .  A
C377        C378   1.381       .  A
C378        C379   1.396       .  A
C378        O384   1.311       .  A
C379        C380   1.395       .  A
C379        H388   1.083   1_556  S
C380        C383   1.354       .  A
O381        C382   1.332       .  A
C382        C383   1.387       .  A
C383        H389   1.083   1_556  S
O384        C385   1.327       .  A
C385        C386   1.394       .  A
C386        H390   1.082       .  S
C391        C396   1.381       .  A
C391        C392   1.407       .  A
C391        O397   1.323   1_655  A
C392        C393   1.407       .  A
C392        H403   1.083   1_655  S
C393        C402   1.367       .  A
C393        C394   1.382       .  A
C394        C395   1.399       .  A
C394        O400   1.315       .  A
C395        C396   1.398       .  A
C395        H404   1.084       .  S
C396        C399   1.356       .  A
O397        C398   1.333       .  A
C398        C399   1.389   1_455  A
C399        H405   1.083       .  S
O400        C401   1.328       .  A
C401        C402   1.392       .  A
C402        H406   1.083       .  S
C407        C412   1.381       .  A
C407        C408   1.405       .  A
C407        O413   1.321       .  A
C408        C409   1.405       .  A
C408        H419   1.083       .  S
C409        C418   1.364   1_655  A
C409        C410   1.381       .  A
C410        C411   1.399       .  A
C410        O416   1.316       .  A
C411        C412   1.399       .  A
C411        H420   1.083       .  S
C412        C415   1.356       .  A
O413        C414   1.331       .  A
C414        C415   1.390       .  A
C415        H421   1.083       .  S
O416        C417   1.329       .  A
C417        C418   1.393   1_655  A
C418        H422   1.083       .  S
C423        C428   1.381       .  A
C423        C424   1.400       .  A
C423        O429   1.316       .  A
C424        C425   1.399       .  A
C424        H435   1.084       .  S
C425        C434   1.356       .  A
C425        C426   1.380       .  A
C426        C427   1.410       .  A
C426        O432   1.326       .  A
C427        C428   1.410       .  A
C427        H436   1.083       .  S
C428        C431   1.370       .  A
O429        C430   1.329       .  A
C430        C431   1.394       .  A
C431        H437   1.083       .  S
O432        C433   1.335       .  A
C433        C434   1.390       .  A
C434        H438   1.083       .  S
C439        C444   1.381       .  A
C439        C440   1.397       .  A
C439        O445   1.312       .  A
C440        C441   1.395       .  A
C440        H451   1.084       .  S
C441        C450   1.356       .  A
C441        C442   1.380       .  A
C442        C443   1.408       .  A
C442        O448   1.321       .  A
C443        C444   1.407       .  A
C443        H452   1.083       .  S
C444        C447   1.369       .  A
O445        C446   1.327       .  A
C446        C447   1.393       .  A
C447        H453   1.083       .  S
O448        C449   1.333       .  A
C449        C450   1.388       .  A
C450        H454   1.083       .  S
C455        C460   1.381       .  A
C455        C456   1.401       .  A
C455        O461   1.316       .  A
C456        C457   1.400       .  A
C456        H467   1.084       .  S
C457        C466   1.359       .  A
C457        C458   1.380       .  A
C458        C459   1.408       .  A
C458        O464   1.323   1_545  A
C459        C460   1.407       .  A
C459        H468   1.083       .  S
C460        C463   1.369       .  A
O461        C462   1.329       .  A
C462        C463   1.393       .  A
C463        H469   1.083       .  S
O464        C465   1.334   1_565  A
C465        C466   1.391       .  A
C466        H470   1.083       .  S
C471        C476   1.381       .  A
C471        C472   1.404       .  A
C471        O477   1.321       .  A
C472        C473   1.404       .  A
C472        H483   1.083       .  S
C473        C482   1.361   1_545  A
C473        C474   1.381       .  A
C474        C475   1.400       .  A
C474        O480   1.318       .  A
C475        C476   1.400       .  A
C475        H484   1.083       .  S
C476        C479   1.357       .  A
O477        C478   1.331       .  A
C478        C479   1.387       .  A
C479        H485   1.083       .  S
O480        C481   1.329       .  A
C481        C482   1.393   1_545  A
C482        H486   1.083       .  S
C487        C492   1.381       .  A
C487        C488   1.405       .  A
C487        O493   1.321       .  A
C488        C489   1.405       .  A
C488        H499   1.083       .  S
C489        C498   1.365       .  A
C489        C490   1.380       .  A
C490        C491   1.402       .  A
C490        O496   1.318       .  A
C491        C492   1.401       .  A
C491        H500   1.083       .  S
C492        C495   1.359       .  A
O493        C494   1.331       .  A
C494        C495   1.390       .  A
C495        H501   1.083       .  S
O496        C497   1.331       .  A
C497        C498   1.393       .  A
C498        H502   1.083       .  S
C503        C508   1.381       .  A
C503        C504   1.399       .  A
C503        O509   1.316       .  A
C504        C505   1.400       .  A
C504        H515   1.084       .  S
C505        C514   1.356       .  A
C505        C506   1.381       .  A
C506        C507   1.406       .  A
C506        O512   1.323       .  A
C507        C508   1.406       .  A
C507        H516   1.083       .  S
C508        C511   1.365       .  A
O509        C510   1.329       .  A
C510        C511   1.393       .  A
C511        H517   1.083       .  S
O512        C513   1.332       .  A
C513        C514   1.389       .  A
C514        H518   1.083       .  S
C519        C524   1.382       .  A
C519        C520   1.396       .  A
C519        O525   1.314       .  A
C520        C521   1.396       .  A
C520        H531   1.083       .  S
C521        C530   1.352       .  A
C521        C522   1.381       .  A
C522        C523   1.406       .  A
C522        O528   1.323       .  A
C523        C524   1.406       .  A
C523        H532   1.082       .  S
C524        C527   1.364       .  A
O525        C526   1.327       .  A
C526        C527   1.393       .  A
C527        H533   1.082       .  S
O528        C529   1.332       .  A
C529        C530   1.387       .  A
C530        H534   1.083       .  S
C535        C540   1.380       .  A
C535        C536   1.401       .  A
C535        O541   1.318       .  A
C536        C537   1.401       .  A
C536        H547   1.083       .  S
C537        C546   1.358       .  A
C537        C538   1.381       .  A
C538        C539   1.407       .  A
C538        O544   1.324       .  A
C539        C540   1.407       .  A
C539        H548   1.083       .  S
C540        C543   1.367       .  A
O541        C542   1.331       .  A
C542        C543   1.393       .  A
C543        H549   1.082       .  S
O544        C545   1.332       .  A
C545        C546   1.390       .  A
C546        H550   1.083       .  S
C551        C556   1.381       .  A
C551        C552   1.399       .  A
C551        O557   1.317       .  A
C552        C553   1.399       .  A
C552        H563   1.083       .  S
C553        C562   1.356       .  A
C553        C554   1.381       .  A
C554        C555   1.406       .  A
C554        O560   1.322       .  A
C555        C556   1.406       .  A
C555        H564   1.083       .  S
C556        C559   1.364       .  A
O557        C558   1.329       .  A
C558        C559   1.393       .  A
C559        H565   1.083       .  S
O560        C561   1.332       .  A
C561        C562   1.389       .  A
C562        H566   1.083       .  S
C567        C572   1.381       .  A
C567        C568   1.400       .  A
C567        O573   1.317       .  A
C568        C569   1.400       .  A
C568        H579   1.084       .  S
C569        C578   1.357       .  A
C569        C570   1.381       .  A
C570        C571   1.406       .  A
C570        O576   1.322       .  A
C571        C572   1.405       .  A
C571        H580   1.083       .  S
C572        C575   1.364       .  A
O573        C574   1.330       .  A
C574        C575   1.393       .  A
C575        H581   1.083       .  S
O576        C577   1.331       .  A
C577        C578   1.390       .  A
C578        H582   1.083       .  S
C583        C588   1.381       .  A
C583        C584   1.401       .  A
C583        O589   1.317       .  A
C584        C585   1.400       .  A
C584        H595   1.083       .  S
C585        C594   1.359       .  A
C585        C586   1.381       .  A
C586        C587   1.403       .  A
C586        O592   1.318       .  A
C587        C588   1.403       .  A
C587        H596   1.083       .  S
C588        C591   1.363       .  A
O589        C590   1.329       .  A
C590        C591   1.390       .  A
C591        H597   1.083       .  S
O592        C593   1.331       .  A
C593        C594   1.390       .  A
C594        H598   1.083       .  S
C599        C604   1.381       .  A
C599        C600   1.395       .  A
C599        O605   1.311       .  A
C600        C601   1.394       .  A
C600        H611   1.083       .  S
C601        C610   1.352       .  A
C601        C602   1.380       .  A
C602        C603   1.410       .  A
C602        O608   1.324       .  A
C603        C604   1.409       .  A
C603        H612   1.082       .  S
C604        C607   1.371       .  A
O605        C606   1.326       .  A
C606        C607   1.395       .  A
C607        H613   1.082       .  S
O608        C609   1.334       .  A
C609        C610   1.387       .  A
C610        H614   1.083       .  S
C615        C620   1.381       .  A
C615        C616   1.408       .  A
C615        O621   1.325       .  A
C616        C617   1.408       .  A
C616        H627   1.083       .  S
C617        C626   1.367       .  A
C617        C618   1.381       .  A
C618        C619   1.398       .  A
C618        O624   1.316       .  A
C619        C620   1.398       .  A
C619        H628   1.083       .  S
C620        C623   1.354       .  A
O621        C622   1.333       .  A
C622        C623   1.389       .  A
C623        H629   1.083       .  S
O624        C625   1.329       .  A
C625        C626   1.394       .  A
C626        H630   1.083       .  S
