geometry optimzed in LAMMPS
_audit_creation_date              2020-11-30 
_audit_creation_method            'lammps2cif' 
_symmetry_space_group_name_H-M    'P1' 
_symmetry_Int_Tables_number       1 
_symmetry_cell_setting            triclinic 
loop_ 
_symmetry_equiv_pos_as_xyz 
  x,y,z 
_cell_length_a                    40.6252036 
_cell_length_b                    40.40150906364267 
_cell_length_c                    49.68883379074241 
_cell_angle_alpha                 89.67055061927259 
_cell_angle_beta                  90.29910785629956 
_cell_angle_gamma                 119.9428563036663 
loop_ 
_atom_site_label 
_atom_site_type_symbol 
_atom_site_fract_x 
_atom_site_fract_y 
_atom_site_fract_z 
_atom_site_charge 
O1          O  0.59376502  0.37921700  0.21663157    -0.89000
C2          C  0.63359571  0.44673484  0.28084963     0.87100
Mg3        Mg  0.60181484  0.39579748  0.17630231     1.58100
O4          O  0.53590903  0.40240586  0.27704180    -0.88700
O5          O  0.54590209  0.34274595  0.24354633    -0.76000
C6          C  0.53074310  0.50984486  0.17297321     0.92100
O7          O  0.66413965  0.46484299  0.22275647    -0.75800
O8          O  0.55311959  0.50167091  0.16082520    -0.83300
Mg9        Mg  0.64272494  0.40584822  0.24203045     1.58000
C10         C  0.48542566  0.46887576  0.28259375     0.92000
O11         O  0.62339735  0.34677052  0.25424442    -0.81600
H12         H  0.48473313  0.35539569  0.27736466    -0.06900
C13         C  0.59121963  0.50943214  0.23889614     0.87000
O14         O  0.53928576  0.38337773  0.17525086    -0.76100
O15         O  0.61213181  0.41629269  0.26958544    -0.88900
O16         O  0.50722252  0.46048579  0.29590879    -0.81700
C17         C  0.57652894  0.42137127  0.34246311     0.92200
C18         C  0.60417949  0.32198031  0.27153238     0.92000
Mg19       Mg  0.51199148  0.44944753  0.22465035     1.58000
O20         O  0.52277868  0.50197524  0.19793413    -0.81600
O21         O  0.49071310  0.39443394  0.24915398    -0.75900
O22         O  0.57936575  0.39607381  0.32870601    -0.81700
O23         O  0.68061192  0.39770288  0.21775267    -0.83400
O24         O  0.57702501  0.44626559  0.13546279    -0.81700
C25         C  0.50300919  0.38325310  0.26865372     0.86400
O26         O  0.54021747  0.43170830  0.19545164    -0.88900
O27         O  0.56486322  0.47817830  0.24648544    -0.89000
O28         O  0.60395975  0.51464878  0.21493375    -0.76000
Mg29       Mg  0.56248854  0.36962749  0.28536946     1.58000
O30         O  0.56554685  0.44339006  0.33210360    -0.83400
H31         H  0.54882614  0.33031072  0.20451231    -0.07100
O32         O  0.62326938  0.45409964  0.18990818    -0.88700
H33         H  0.66948824  0.50518238  0.19582655    -0.07000
H34         H  0.49218954  0.38809432  0.18083272    -0.07100
C35         C  0.65311889  0.47567583  0.20215930     0.86400
C36         C  0.56277497  0.34989479  0.22094391     0.87000
C37         C  0.52246362  0.40066247  0.18386639     0.87100
H38         H  0.60394587  0.53282436  0.25301605    -0.07100
O39         O  0.62276400  0.47012060  0.28670742    -0.76100
Mg40       Mg  0.58925095  0.47777035  0.17630776     1.58000
H41         H  0.66300992  0.45476381  0.28398563    -0.07100
C42         C  0.68577349  0.39931604  0.19298686     0.92000
O43         O  0.60454523  0.41067845  0.13163173    -0.83400
C44         C  0.58642596  0.42596619  0.12139295     0.92100
O45         O  0.58717419  0.32879174  0.29049977    -0.83300
Mg46       Mg  0.56351745  0.46141643  0.28859408     1.58200
O47         O  0.66302093  0.40184866  0.17607536    -0.81700
O48         O  0.48434933  0.46859192  0.25683687    -0.83400
O49         O  0.59369219  0.37918827  0.46662240    -0.89000
C50         C  0.63350376  0.44668992  0.03082950     0.87100
Mg51       Mg  0.60177863  0.39580219  0.42630427     1.58100
O52         O  0.53581840  0.40234108  0.02703630    -0.88700
O53         O  0.54581485  0.34270864  0.49352431    -0.76000
C54         C  0.53068245  0.50982433  0.42297617     0.92100
O55         O  0.66407966  0.46480761  0.47277320    -0.75800
O56         O  0.55307490  0.50166755  0.41083324    -0.83300
Mg57       Mg  0.64264054  0.40578941  0.49203099     1.58000
C58         C  0.48532679  0.46878663  0.03259400     0.92000
O59         O  0.62327638  0.34667311  0.00419839    -0.81600
H60         H  0.48464965  0.35532111  0.02734686    -0.06900
C61         C  0.59109537  0.50938259  0.48890780     0.87000
O62         O  0.53924183  0.38336493  0.42522302    -0.76100
O63         O  0.61204141  0.41623894  0.01957345    -0.88900
O64         O  0.50711304  0.46038232  0.04590862    -0.81700
C65         C  0.57647561  0.42131439  0.09245606     0.92200
C66         C  0.60403930  0.32188044  0.02148075     0.92000
Mg67       Mg  0.51189379  0.44937875  0.47464166     1.58000
O68         O  0.52267123  0.50190757  0.44792772    -0.81600
O69         O  0.49062831  0.39436110  0.49913822    -0.75900
O70         O  0.57930234  0.39601408  0.07869440    -0.81700
O71         O  0.68054078  0.39765443  0.46777467    -0.83400
O72         O  0.57701377  0.44628354  0.38547024    -0.81700
C73         C  0.50292253  0.38318281  0.01864087     0.86400
O74         O  0.54014177  0.43167077  0.44543854    -0.88900
O75         O  0.56475225  0.47811452  0.49648561    -0.89000
O76         O  0.60385679  0.51461844  0.46495155    -0.76000
Mg77       Mg  0.56240417  0.36956998  0.03535374     1.58000
O78         O  0.56547824  0.44332541  0.08210254    -0.83400
H79         H  0.54874713  0.33029856  0.45448539    -0.07100
O80         O  0.62320331  0.45408575  0.43993422    -0.88700
H81         H  0.66942570  0.50516449  0.44585861    -0.07000
H82         H  0.49213285  0.38806476  0.43078890    -0.07100
C83         C  0.65305522  0.47565513  0.45218505     0.86400
C84         C  0.56269462  0.34986948  0.47092388     0.87000
C85         C  0.52240443  0.40063528  0.43383773     0.87100
H86         H  0.60379292  0.53276960  0.50303319    -0.07100
O87         O  0.62266633  0.47007140  0.03668669    -0.76100
Mg88       Mg  0.58919183  0.47775798  0.42632272     1.58000
H89         H  0.66292256  0.45473096  0.03395725    -0.07100
C90         C  0.68573827  0.39933823  0.44301269     0.92000
O91         O  0.60456431  0.41072354  0.38164660    -0.83400
C92         C  0.58644539  0.42600665  0.37140268     0.92100
O93         O  0.58707739  0.32872183  0.04046362    -0.83300
Mg94       Mg  0.56341786  0.46134660  0.03859036     1.58200
O95         O  0.66299754  0.40189316  0.42610234    -0.81700
O96         O  0.48424775  0.46850576  0.00683667    -0.83400
O97         O  0.41496697  0.62427726  0.08703728    -0.89000
C98         C  0.36644302  0.55464906  0.15011002     0.87100
Mg99       Mg  0.40131651  0.60421053  0.04709028     1.58100
O100        O  0.46532098  0.59504201  0.15012639    -0.88700
O101        O  0.46142116  0.65819895  0.11574590    -0.76000
C102        C  0.46487384  0.48439692  0.04760616     0.92100
O103        O  0.33694721  0.54528310  0.09136928    -0.75800
O104        O  0.44339558  0.49344208  0.03475534    -0.83300
Mg105      Mg  0.36661561  0.60624632  0.11009503     1.58000
C106        C  0.51013799  0.52489415  0.15713783     0.92000
O107        O  0.39306337  0.66705025  0.12275905    -0.81600
H108        H  0.51737393  0.64077609  0.15019633    -0.06900
C109        C  0.40598781  0.48852441  0.11192615     0.87000
O110        O  0.46316945  0.61413722  0.04519075    -0.76100
O111        O  0.39093664  0.58478931  0.13862977    -0.88900
O112        O  0.48754531  0.53257452  0.16972907    -0.81700
C113        C  0.42209926  0.57518632  0.21445138     0.92200
C114        C  0.40527372  0.68368674  0.14475467     0.92000
Mg115      Mg  0.48611847  0.54619534  0.09806245     1.58000
O116        O  0.47263011  0.49235833  0.07255388    -0.81600
O117        O  0.50938413  0.60151926  0.12191849    -0.75900
O118        O  0.42096096  0.60150926  0.20054394    -0.81700
O119        O  0.34212590  0.62898038  0.08334839    -0.83400
O120        O  0.42226797  0.55101184  0.00784103    -0.81700
C121        C  0.49819443  0.61315921  0.14159439     0.86400
O122        O  0.45991323  0.56565344  0.06761573    -0.88900
O123        O  0.43278975  0.51954241  0.11927071    -0.89000
O124        O  0.39324169  0.48340436  0.08796334    -0.76000
Mg125      Mg  0.44111459  0.62972250  0.15772007     1.58000
O126        O  0.43169280  0.55221231  0.20434104    -0.83400
H127        H  0.46299978  0.67129059  0.07604367    -0.07100
O128        O  0.37910028  0.54762245  0.06272061    -0.88700
H129        H  0.32859102  0.50036229  0.06812143    -0.07000
H130        H  0.50861767  0.60662320  0.05164310    -0.07100
C131        C  0.34756106  0.52975893  0.07368487     0.86400
C132        C  0.44682039  0.65200058  0.09217259     0.87000
C133        C  0.47866159  0.59583218  0.05489238     0.87100
H134        H  0.39280662  0.46534079  0.12628644    -0.07100
O135        O  0.37492899  0.52998853  0.15779898    -0.76100
Mg136      Mg  0.40946536  0.52022429  0.04927692     1.58000
H137        H  0.33753075  0.54886014  0.15191740    -0.07100
C138        C  0.32259172  0.60729984  0.06495918     0.92000
O139        O  0.39441492  0.58623113  0.00322053    -0.83400
C140        C  0.41240535  0.57082758  0.49334113     0.92100
O141        O  0.41640616  0.66951509  0.16340373    -0.83300
Mg142      Mg  0.43352954  0.53534162  0.16108729     1.58200
O143        O  0.33692554  0.59322353  0.04879315    -0.81700
O144        O  0.51230468  0.52592366  0.13139392    -0.83400
O145        O  0.41490918  0.62424207  0.33701678    -0.89000
C146        C  0.36639149  0.55460750  0.40009162     0.87100
Mg147      Mg  0.40126289  0.60417978  0.29707062     1.58100
O148        O  0.46527765  0.59503747  0.40012217    -0.88700
O149        O  0.46135117  0.65817013  0.36573117    -0.76000
C150        C  0.46494257  0.48445829  0.29760395     0.92100
O151        O  0.33689304  0.54524354  0.34133898    -0.75800
O152        O  0.44345111  0.49348504  0.28475134    -0.83300
Mg153      Mg  0.36656104  0.60620474  0.36007217     1.58000
C154        C  0.51010696  0.52490431  0.40714074     0.92000
O155        O  0.39300895  0.66700219  0.37273480    -0.81600
H156        H  0.51732023  0.64078688  0.40020347    -0.06900
C157        C  0.40598855  0.48852206  0.36191708     0.87000
O158        O  0.46312415  0.61412791  0.29517503    -0.76100
O159        O  0.39088227  0.58474541  0.38860849    -0.88900
O160        O  0.48751275  0.53258335  0.41972966    -0.81700
C161        C  0.42207437  0.57518040  0.46445118     0.92200
C162        C  0.40519017  0.68362268  0.39473794     0.92000
Mg163      Mg  0.48611402  0.54622557  0.34806421     1.58000
O164        O  0.47267407  0.49240513  0.32255518    -0.81600
O165        O  0.50935726  0.60154478  0.37192107    -0.75900
O166        O  0.42091786  0.60149251  0.45054168    -0.81700
O167        O  0.34209390  0.62896543  0.33333030    -0.83400
O168        O  0.42227110  0.55101503  0.25784048    -0.81700
C169        C  0.49815313  0.61316963  0.39159680     0.86400
O170        O  0.45989472  0.56566841  0.31761572    -0.88900
O171        O  0.43277588  0.51954758  0.36926431    -0.89000
O172        O  0.39324908  0.48339652  0.33795230    -0.76000
Mg173      Mg  0.44104759  0.62969184  0.40770838     1.58000
O174        O  0.43166049  0.55220360  0.45433667    -0.83400
H175        H  0.46293843  0.67126256  0.32602807    -0.07100
O176        O  0.37906047  0.54759052  0.31270103    -0.88700
H177        H  0.32855015  0.50032662  0.31809107    -0.07000
H178        H  0.50859022  0.60664651  0.30163817    -0.07100
C179        C  0.34751658  0.52972240  0.32365849     0.86400
C180        C  0.44675791  0.65196952  0.34215531     0.87000
C181        C  0.47863190  0.59584333  0.30488643     0.87100
H182        H  0.39281489  0.46533636  0.37627639    -0.07100
O183        O  0.37488663  0.52995817  0.40779086    -0.76100
Mg184      Mg  0.40946821  0.52022193  0.29926884     1.58000
H185        H  0.33747634  0.54881153  0.40189416    -0.07100
C186        C  0.32255055  0.60729976  0.31493895     0.92000
O187        O  0.39437660  0.58619459  0.25320269    -0.83400
C188        C  0.41239977  0.57081782  0.24333467     0.92100
O189        O  0.41630744  0.66944627  0.41339167    -0.83300
Mg190      Mg  0.43349831  0.53533658  0.41108194     1.58200
O191        O  0.33686556  0.59320403  0.29877150    -0.81700
O192        O  0.51229260  0.52595343  0.38139786    -0.83400
O193        O  0.21667476  0.58755752  0.00676823    -0.89000
C194        C  0.18639290  0.62575137  0.07201009     0.87100
Mg195      Mg  0.20798947  0.59644001  0.46648664     1.58100
O196        O  0.13537869  0.52751868  0.06824637    -0.88700
O197        O  0.20535490  0.53941361  0.03414708    -0.76000
C198        C  0.02146831  0.52469387  0.46552389     0.92100
O199        O  0.19917989  0.65716261  0.01266066    -0.75800
O200        O  0.05177269  0.54468677  0.45227270    -0.83300
Mg201      Mg  0.23639663  0.63584719  0.03203453     1.58000
C202        C  0.02015550  0.47936489  0.07514805     0.92000
O203        O  0.27765683  0.61875529  0.04533548    -0.81600
H204        H  0.13083962  0.47596427  0.06754573    -0.06900
C205        C  0.08437723  0.58419897  0.03023006     0.87000
O206        O  0.15783652  0.53294383  0.46645445    -0.76100
O207        O  0.19258054  0.60288252  0.05883982    -0.88900
O208        O  0.05171741  0.49685060  0.08750388    -0.81700
C209        C  0.15626222  0.56831387  0.13348946     0.92200
C210        C  0.28390745  0.60059707  0.06322025     0.92000
Mg211      Mg  0.06376412  0.50497897  0.01636959     1.58000
O212        O  0.02225581  0.51753370  0.49058729    -0.81600
O213        O  0.09728806  0.48279002  0.04034563    -0.75900
O214        O  0.18437312  0.57155000  0.11965307    -0.81700
O215        O  0.28137146  0.67379135  0.50843569    -0.83400
O216        O  0.13175727  0.56884609  0.42639800    -0.81700
C217        C  0.12133907  0.49467132  0.05943187     0.86400
O218        O  0.10957242  0.53239334  0.48645218    -0.88900
O219        O  0.08934243  0.55778411  0.03787394    -0.89000
O220        O  0.09096889  0.59644629  0.00601908    -0.76000
Mg221      Mg  0.19425207  0.55459927  0.07638550     1.58000
O222        O  0.12324503  0.55645130  0.12334751    -0.83400
H223        H  0.22077299  0.54244509  0.99509012    -0.07100
O224        O  0.16995941  0.61608609  0.48006396    -0.88700
H225        H  0.16448720  0.66213830  0.48545147    -0.07000
H226        H  0.10687394  0.48465038  0.47259396    -0.07100
C227        C  0.17772947  0.64597896  0.49203105     0.86400
C228        C  0.21503792  0.55642953  0.01139797     0.87000
C229        C  0.12378194  0.51522066  0.47525414     0.87100
H230        H  0.07421517  0.59721359  0.04443076    -0.07100
O231        O  0.15311077  0.61591207  0.07930864    -0.76100
Mg232      Mg  0.11233643  0.58131596  0.46708209     1.58000
H233        H  0.20907005  0.65474016  0.07520588    -0.07100
C234        C  0.28683456  0.68212761  0.48413344     0.92000
O235        O  0.19483711  0.59852922  0.42209258    -0.83400
C236        C  0.16148267  0.57899837  0.41221788     0.92100
O237        O  0.25937974  0.58182341  0.08145951    -0.83300
Mg238      Mg  0.10401377  0.55512647  0.08014260     1.58200
O239        O  0.26350709  0.66055084  0.46575553    -0.81700
O240        O  0.01785639  0.47979302  0.04944926    -0.83400
O241        O  0.21667404  0.58760192  0.25676832    -0.89000
C242        C  0.18637326  0.62582360  0.32198986     0.87100
Mg243      Mg  0.20801001  0.59645383  0.21648113     1.58100
O244        O  0.13536401  0.52759117  0.31825611    -0.88700
O245        O  0.20532711  0.53946248  0.28416015    -0.76000
C246        C  0.02148276  0.52470129  0.21550484     0.92100
O247        O  0.19916699  0.65720454  0.26262457    -0.75800
O248        O  0.05178896  0.54467007  0.20224969    -0.83300
Mg249      Mg  0.23638071  0.63590157  0.28202124     1.58000
C250        C  0.02015517  0.47943370  0.32515167     0.92000
O251        O  0.27763424  0.61879923  0.29532627    -0.81600
H252        H  0.13082033  0.47603388  0.31758991    -0.06900
C253        C  0.08438790  0.58425678  0.28019766     0.87000
O254        O  0.15785201  0.53295589  0.21646962    -0.76100
O255        O  0.19255745  0.60294636  0.30882684    -0.88900
O256        O  0.05171710  0.49692554  0.33750591    -0.81700
C257        C  0.15624402  0.56839539  0.38349125     0.92200
C258        C  0.28387698  0.60063157  0.31320856     0.92000
Mg259      Mg  0.06376764  0.50502292  0.26637339     1.58000
O260        O  0.02226923  0.51757304  0.24057444    -0.81600
O261        O  0.09727756  0.48283877  0.29036990    -0.75900
O262        O  0.18435545  0.57163143  0.36965537    -0.81700
O263        O  0.28135930  0.67384456  0.25842403    -0.83400
O264        O  0.13178177  0.56880662  0.17638923    -0.81700
C265        C  0.12132360  0.49473512  0.30945888     0.86400
O266        O  0.10958936  0.53241809  0.23645981    -0.88900
O267        O  0.08933981  0.55784073  0.28786132    -0.89000
O268        O  0.09098603  0.59648224  0.25598094    -0.76000
Mg269      Mg  0.19423147  0.55467062  0.32638999     1.58000
O270        O  0.12323043  0.55654529  0.37334628    -0.83400
H271        H  0.22075652  0.54247394  0.24510843    -0.07100
O272        O  0.16997645  0.61611243  0.23003035    -0.88700
H273        H  0.16449418  0.66216390  0.23538815    -0.07000
H274        H  0.10689282  0.48466472  0.22262617    -0.07100
C275        C  0.17773503  0.64601080  0.24198551     0.86400
C276        C  0.21502358  0.55647025  0.26140922     0.87000
C277        C  0.12379937  0.51523747  0.22527375     0.87100
H278        H  0.07423069  0.59729102  0.29438559    -0.07100
O279        O  0.15309354  0.61598892  0.32929165    -0.76100
Mg280      Mg  0.11235338  0.58131825  0.21705655     1.58000
H281        H  0.20905124  0.65481436  0.32517702    -0.07100
C282        C  0.28685621  0.68216003  0.23412009     0.92000
O283        O  0.19486250  0.59849474  0.17208017    -0.83400
C284        C  0.16150636  0.57894476  0.16221075     0.92100
O285        O  0.25935479  0.58187953  0.33145576    -0.83300
Mg286      Mg  0.10400149  0.55520356  0.33013703     1.58200
O287        O  0.26354809  0.66056712  0.21573789    -0.81700
O288        O  0.01785407  0.47985563  0.29945241    -0.83400
O289        O  0.78824252  0.37320332  0.16017421    -0.89000
C290        C  0.81800186  0.44442130  0.09632538     0.87100
Mg291      Mg  0.79866466  0.39180637  0.20007914     1.58100
O292        O  0.87039518  0.39784027  0.09894378    -0.88700
O293        O  0.80033797  0.33788752  0.13245472    -0.76000
C294        C  0.98464120  0.50663752  0.20103596     0.92100
O295        O  0.80174730  0.45873877  0.15533620    -0.75800
O296        O  0.95439816  0.49719464  0.21410374    -0.83300
Mg297      Mg  0.76521278  0.39975128  0.13558119     1.58000
C298        C  0.98533268  0.46324180  0.09142598     0.92000
O299        O  0.72469976  0.33999472  0.12181329    -0.81600
H300        H  0.87442325  0.35055078  0.09881590    -0.06900
C301        C  0.92207821  0.50475465  0.13643403     0.87000
O302        O  0.84856989  0.37856771  0.20047726    -0.76100
O303        O  0.81067411  0.41415985  0.10864055    -0.88900
O304        O  0.95430769  0.45284143  0.07897464    -0.81700
C305        C  0.84972357  0.41834361  0.03349071     0.92200
C306        C  0.72120347  0.31938424  0.10195228     0.92000
Mg307      Mg  0.94194998  0.44508862  0.15033828     1.58000
O308        O  0.98383836  0.49850702  0.17608020    -0.81600
O309        O  0.90806073  0.38978238  0.12645535    -0.75900
O310        O  0.82160555  0.39344083  0.04739075    -0.81700
O311        O  0.71862771  0.38940397  0.15981949    -0.83400
O312        O  0.87473584  0.44196884  0.24028789    -0.81700
C313        C  0.88418701  0.37852903  0.10729721     0.86400
O314        O  0.89655097  0.42688152  0.18035856    -0.88900
O315        O  0.91683856  0.47332819  0.12896540    -0.89000
O316        O  0.91518908  0.51016805  0.16048433    -0.76000
Mg317      Mg  0.81170699  0.36618369  0.09059231     1.58000
O318        O  0.88242304  0.44009094  0.04379696    -0.83400
H319        H  0.78482239  0.32396249  0.17144134    -0.07100
O320        O  0.83583864  0.44916959  0.18563443    -0.88700
H321        H  0.83856018  0.49972600  0.18093913    -0.07000
H322        H  0.89983418  0.38213447  0.19457891    -0.07100
C323        C  0.82580597  0.47031805  0.17455479     0.86400
C324        C  0.79037397  0.34415431  0.15531884     0.87000
C325        C  0.88265122  0.39544211  0.19176077     0.87100
H326        H  0.93253671  0.52811036  0.12216540    -0.07100
O327        O  0.85152094  0.46756585  0.08901692    -0.76100
Mg328      Mg  0.89368766  0.47313262  0.19917946     1.58000
H329        H  0.79602056  0.45182612  0.09369350    -0.07100
C330        C  0.71853942  0.39693637  0.18410235     0.92000
O331        O  0.81174222  0.40805136  0.24424444    -0.83400
C332        C  0.84491445  0.42273016  0.25445974     0.92100
O333        O  0.74762196  0.32945043  0.08453484    -0.83300
Mg334      Mg  0.90139851  0.45700142  0.08703156     1.58200
O335        O  0.74527634  0.40158251  0.20041631    -0.81700
O336        O  0.98765718  0.46476769  0.11715561    -0.83400
O337        O  0.78820752  0.37331188  0.41017668    -0.89000
C338        C  0.81807275  0.44459216  0.34633896     0.87100
Mg339      Mg  0.79863855  0.39184281  0.45008907     1.58100
O340        O  0.87038931  0.39791546  0.34893770    -0.88700
O341        O  0.80028958  0.33799873  0.38244477    -0.76000
C342        C  0.98462787  0.50663969  0.45105530     0.92100
O343        O  0.80185820  0.45895617  0.40540389    -0.75800
O344        O  0.95438529  0.49717941  0.46412740    -0.83300
Mg345      Mg  0.76531552  0.40005391  0.38561073     1.58000
C346        C  0.98533465  0.46330702  0.34143178     0.92000
O347        O  0.72472189  0.34049859  0.37179958    -0.81600
H348        H  0.87440635  0.35061883  0.34879237    -0.06900
C349        C  0.92207755  0.50481285  0.38646243     0.87000
O350        O  0.84853390  0.37858538  0.45045544    -0.76100
O351        O  0.81077062  0.41436753  0.35868917    -0.88900
O352        O  0.95430877  0.45290187  0.32898174    -0.81700
C353        C  0.84974072  0.41843942  0.28349216     0.92200
C354        C  0.72114275  0.31987058  0.35194620     0.92000
Mg355      Mg  0.94194063  0.44513060  0.40033876     1.58000
O356        O  0.98382520  0.49853425  0.42609447    -0.81600
O357        O  0.90805133  0.38983534  0.37643856    -0.75900
O358        O  0.82161117  0.39357353  0.29740087    -0.81700
O359        O  0.71872869  0.38970209  0.40981847    -0.83400
O360        O  0.87471301  0.44193242  0.49029677    -0.81700
C361        C  0.88417359  0.37859276  0.35728248     0.86400
O362        O  0.89652969  0.42690559  0.43035379    -0.88900
O363        O  0.91684473  0.47339483  0.37897686    -0.89000
O364        O  0.91518608  0.51020484  0.41051841    -0.76000
Mg365      Mg  0.81168317  0.36633898  0.34060483     1.58000
O366        O  0.88244450  0.44017929  0.29379637    -0.83400
H367        H  0.78473768  0.32404013  0.42142060    -0.07100
O368        O  0.83584706  0.44922507  0.43568282    -0.88700
H369        H  0.83863935  0.49982534  0.43108240    -0.07000
H370        H  0.89978613  0.38213009  0.44454388    -0.07100
C371        C  0.82586581  0.47043810  0.42464677     0.86400
C372        C  0.79031241  0.34425090  0.40530702     0.87000
C373        C  0.88261555  0.39545386  0.44173949     0.87100
H374        H  0.93253411  0.52818088  0.37220420    -0.07100
O375        O  0.85157932  0.46771244  0.33900041    -0.76100
Mg376      Mg  0.89368307  0.47314404  0.44920769     1.58000
H377        H  0.79608660  0.45198896  0.34370156    -0.07100
C378        C  0.71854508  0.39704020  0.43412810     0.92000
O379        O  0.81171790  0.40802265  0.49425840    -0.83400
C380        C  0.84489225  0.42267688  0.00446667     0.92100
O381        O  0.74758069  0.32977235  0.33456405    -0.83300
Mg382      Mg  0.90141887  0.45708919  0.33703442     1.58200
O383        O  0.74523234  0.40158953  0.45045797    -0.81700
O384        O  0.98765925  0.46482936  0.36716153    -0.83400
O385        O  0.59010462  0.21662880  0.07384963    -0.89000
C386        C  0.62675327  0.18681779  0.00873790     0.87100
Mg387      Mg  0.59830145  0.20808783  0.11427408     1.58100
O388        O  0.52934315  0.13670912  0.01311117    -0.88700
O389        O  0.54268026  0.20720803  0.04692655    -0.76000
C390        C  0.52182360  0.02051561  0.11577525     0.92100
O391        O  0.65625097  0.19586761  0.06688753    -0.75800
O392        O  0.54226771  0.05088525  0.12893895    -0.83300
Mg393      Mg  0.63775037  0.23594409  0.04813831     1.58000
C394        C  0.47775428  0.02006259  0.00585421     0.92000
O395        O  0.62150333  0.27847233  0.03642361    -0.81600
H396        H  0.47873915  0.13370175  0.01287957    -0.06900
C397        C  0.58201370  0.08215598  0.05096956     0.87000
O398        O  0.53451866  0.15926479  0.11445548    -0.76100
O399        O  0.60596856  0.19629768  0.02028340    -0.88900
O400        O  0.49642385  0.05159205  0.49333217    -0.81700
C401        C  0.56939386  0.15705535  0.44762732     0.92200
C402        C  0.60298923  0.28528226  0.01920468     0.92000
Mg403      Mg  0.50392323  0.06410136  0.06462712     1.58000
O404        O  0.51459072  0.02136076  0.09073446    -0.81600
O405        O  0.48352733  0.09902680  0.04036798    -0.75900
O406        O  0.57336347  0.18564721  0.46141727    -0.81700
O407        O  0.67679623  0.27926788  0.07265201    -0.83400
O408        O  0.56874417  0.13169708  0.15465539    -0.81700
C409        C  0.49648338  0.12334623  0.02137864     0.86400
O410        O  0.53236172  0.11008847  0.09440790    -0.88900
O411        O  0.55647611  0.08824356  0.04327189    -0.89000
O412        O  0.59417990  0.08853222  0.07517398    -0.76000
Mg413      Mg  0.55768176  0.19603041  0.00487959     1.58000
O414        O  0.55719151  0.12383450  0.45788962    -0.83400
H415        H  0.54651446  0.22261869  0.08603081    -0.07100
O416        O  0.61658584  0.16878690  0.10074554    -0.88700
H417        H  0.66043125  0.16046536  0.09405015    -0.07000
H418        H  0.48557115  0.10889089  0.10824821    -0.07100
C419        C  0.64528800  0.17494583  0.08791794     0.86400
C420        C  0.55974667  0.21628219  0.06955939     0.87000
C421        C  0.51602610  0.12512814  0.10561054     0.87100
H422        H  0.59431299  0.07118001  0.03682439    -0.07100
O423        O  0.61514081  0.15239386  0.00289232    -0.76100
Mg424      Mg  0.58021839  0.11124551  0.11394821     1.58000
H425        H  0.65626694  0.20785409  0.00548845    -0.07100
C426        C  0.68459879  0.28506981  0.09699554     0.92000
O427        O  0.59987673  0.19513976  0.15875517    -0.83400
C428        C  0.57975556  0.16179489  0.16876815     0.92100
O429        O  0.58511092  0.26186616  0.50010463    -0.83300
Mg430      Mg  0.55483623  0.10377926  0.00113448     1.58200
O431        O  0.66229188  0.26240684  0.11532658    -0.82900
O432        O  0.47775879  0.01794843  0.03158679    -0.83400
O433        O  0.59036690  0.21701884  0.32373892    -0.89000
C434        C  0.62685822  0.18696106  0.25849331     0.87100
Mg435      Mg  0.59804115  0.20917109  0.36436518     1.58100
O436        O  0.52947772  0.13679297  0.26307505    -0.88700
O437        O  0.54287249  0.20732184  0.29676866    -0.76000
C438        C  0.52143128  0.02011918  0.36588512     0.92100
O439        O  0.65688001  0.19556159  0.31549348    -0.75800
O440        O  0.54160973  0.05034480  0.37921507    -0.83300
Mg441      Mg  0.63810764  0.23603808  0.29787437     1.58000
C442        C  0.47780474  0.02013305  0.25591391     0.92000
O443        O  0.62179820  0.27869791  0.28650316    -0.81600
H444        H  0.47890817  0.13385962  0.26303388    -0.06900
C445        C  0.58167862  0.08143005  0.30106689     0.87000
O446        O  0.53461931  0.15945333  0.36427592    -0.76100
O447        O  0.60617010  0.19661529  0.26998731    -0.88900
O448        O  0.49655467  0.05165100  0.24339666    -0.81700
C449        C  0.56953599  0.15701327  0.19757419     0.92200
C450        C  0.60321626  0.28542896  0.26927025     0.92000
Mg451      Mg  0.50405429  0.06412984  0.31473585     1.58000
O452        O  0.51454877  0.02115691  0.34079255    -0.81600
O453        O  0.48381063  0.09922156  0.29049376    -0.75900
O454        O  0.57354453  0.18569184  0.21128292    -0.81700
O455        O  0.67728108  0.27876684  0.32274282    -0.83400
O456        O  0.56952940  0.13194952  0.40480785    -0.81700
C457        C  0.49667687  0.12348675  0.27146217     0.86400
O458        O  0.53267308  0.11007450  0.34457715    -0.88900
O459        O  0.55659228  0.08822414  0.29340630    -0.89000
O460        O  0.59357745  0.08716515  0.32534980    -0.76000
Mg461      Mg  0.55783622  0.19614687  0.25475419     1.58000
O462        O  0.55731623  0.12383560  0.20792347    -0.83400
H463        H  0.54663711  0.22282941  0.33583070    -0.07100
O464        O  0.61856707  0.16963198  0.35075984    -0.88700
H465        H  0.66129771  0.15939567  0.34180727    -0.07000
H466        H  0.48585928  0.10880708  0.35842395    -0.07100
C467        C  0.64660426  0.17463836  0.33649099     0.86400
C468        C  0.55994395  0.21652508  0.31939110     0.87000
C469        C  0.51629456  0.12515004  0.35569897     0.87100
H470        H  0.59371144  0.07026177  0.28685460    -0.07100
O471        O  0.61523131  0.15244685  0.25291759    -0.76100
Mg472      Mg  0.58011705  0.11021363  0.36421073     1.58000
H473        H  0.65635901  0.20794267  0.25512819    -0.07100
C474        C  0.68452783  0.28554909  0.34708785     0.92000
O475        O  0.59894594  0.19556412  0.40883134    -0.83400
C476        C  0.57965619  0.16202899  0.41883309     0.92100
O477        O  0.58540121  0.26202984  0.25012862    -0.83300
Mg478      Mg  0.55495781  0.10381100  0.25120810     1.58200
O479        O  0.66165294  0.26384280  0.36554336    -0.81700
O480        O  0.47777831  0.01801384  0.28164772    -0.83400
O481        O  0.37500227  0.78599757  0.17178505    -0.89000
C482        C  0.44427764  0.81804737  0.23669236     0.87100
Mg483      Mg  0.39371728  0.79575181  0.13180858     1.58100
O484        O  0.39655032  0.86883595  0.23309776    -0.88700
O485        O  0.33901304  0.79795911  0.19894836    -0.76000
C486        C  0.50376931  0.98355182  0.13031663     0.92100
O487        O  0.46118759  0.80366209  0.17840953    -0.75800
O488        O  0.49459716  0.95316933  0.11734968    -0.83300
Mg489      Mg  0.40245047  0.76552071  0.19746476     1.58000
C490        C  0.46078540  0.98481931  0.23986041     0.92000
O491        O  0.34258709  0.72300742  0.21016933    -0.81600
H492        H  0.34904384  0.87202489  0.23282104    -0.06900
C493        C  0.50322328  0.92212769  0.19555335     0.87000
O494        O  0.37877766  0.84491132  0.13113796    -0.76100
O495        O  0.41460249  0.81069344  0.22382645    -0.88900
O496        O  0.44962840  0.95360547  0.25254772    -0.81700
C497        C  0.41738232  0.84808072  0.29858495     0.92200
C498        C  0.32115652  0.71904987  0.22954974     0.92000
Mg499      Mg  0.44293418  0.94031367  0.18119231     1.58000
O500        O  0.49577107  0.98277584  0.15528739    -0.81600
O501        O  0.38799209  0.90590388  0.20513090    -0.75900
O502        O  0.39286184  0.81980426  0.28458113    -0.81700
O503        O  0.39554534  0.72023877  0.17411828    -0.83400
O504        O  0.44100561  0.87273134  0.09181236    -0.81700
C505        C  0.37698893  0.88213573  0.22444885     0.86400
O506        O  0.42553203  0.89410160  0.15150717    -0.88900
O507        O  0.47171065  0.91621489  0.20300295    -0.89000
O508        O  0.50890221  0.91536739  0.17150808    -0.76000
Mg509      Mg  0.36597641  0.80980957  0.24126684     1.58000
O510        O  0.43822515  0.88137725  0.28849164    -0.83400
H511        H  0.32598491  0.78198542  0.15996040    -0.07100
O512        O  0.45037568  0.83485577  0.14632682    -0.88700
H513        H  0.50162209  0.84041196  0.15250820    -0.07000
H514        H  0.38012140  0.89546108  0.13701419    -0.07100
C515        C  0.47213999  0.82666974  0.15848092     0.86400
C516        C  0.34584950  0.78789232  0.17627822     0.87000
C517        C  0.39431457  0.87910926  0.13996811     0.87100
H518        H  0.52646677  0.93317949  0.20981258    -0.07100
O519        O  0.46713386  0.85179637  0.24389619    -0.76100
Mg520      Mg  0.47228748  0.89267100  0.13269579     1.58000
H521        H  0.45153526  0.79593978  0.23978262    -0.07100
C522        C  0.40220607  0.71752215  0.15007580     0.92000
O523        O  0.40954740  0.80938186  0.08739489    -0.83400
C524        C  0.42252555  0.84282788  0.07747932     0.92100
O525        O  0.33034247  0.74536324  0.24702927    -0.83300
Mg526      Mg  0.45527197  0.90097403  0.24513048     1.58200
O527        O  0.40527936  0.74212593  0.13209506    -0.81700
O528        O  0.46239344  0.98678156  0.21410830    -0.83400
O529        O  0.37494729  0.78593794  0.42177057    -0.89000
C530        C  0.44422015  0.81795319  0.48670272     0.87100
Mg531      Mg  0.39363717  0.79565233  0.38177992     1.58100
O532        O  0.39652434  0.86877704  0.48312570    -0.88700
O533        O  0.33899542  0.79792348  0.44895893    -0.76000
C534        C  0.50341576  0.98315191  0.38032907     0.92100
O535        O  0.46113386  0.80356004  0.42841002    -0.75800
O536        O  0.49427148  0.95282830  0.36731914    -0.83300
Mg537      Mg  0.40239121  0.76545718  0.44745469     1.58000
C538        C  0.46077404  0.98473688  0.48981761     0.92000
O539        O  0.34253311  0.72297575  0.46016364    -0.81600
H540        H  0.34903086  0.87199039  0.48291595    -0.06900
C541        C  0.50314796  0.92196892  0.44554565     0.87000
O542        O  0.37868148  0.84479489  0.38108776    -0.76100
O543        O  0.41456854  0.81063822  0.47382178    -0.88900
O544        O  0.44967246  0.95354955  0.50252498    -0.81700
C545        C  0.41740600  0.84810342  0.04859937     0.92200
C546        C  0.32112402  0.71901750  0.47955773     0.92000
Mg547      Mg  0.44281775  0.94009660  0.43120739     1.58000
O548        O  0.49558829  0.98234990  0.40532951    -0.81600
O549        O  0.38790305  0.90579905  0.45516338    -0.75900
O550        O  0.39287837  0.81980138  0.03461158    -0.81700
O551        O  0.39545853  0.72017236  0.42409885    -0.83400
O552        O  0.44091519  0.87261417  0.34182127    -0.81700
C553        C  0.37694920  0.88207453  0.47450398     0.86400
O554        O  0.42540219  0.89386547  0.40155395    -0.88900
O555        O  0.47163527  0.91604364  0.45300820    -0.89000
O556        O  0.50881225  0.91520566  0.42149673    -0.76000
Mg557      Mg  0.36596217  0.80976673  0.49128566     1.58000
O558        O  0.43823963  0.88138344  0.03848655    -0.83400
H559        H  0.32594280  0.78197528  0.40996813    -0.07100
O560        O  0.45030338  0.83470777  0.39630783    -0.88700
H561        H  0.50155384  0.84027197  0.40248555    -0.07000
H562        H  0.38008755  0.89536622  0.38701427    -0.07100
C563        C  0.47207493  0.82653681  0.40846571     0.86400
C564        C  0.34581275  0.78786124  0.42627889     0.87000
C565        C  0.39422701  0.87896281  0.38996820     0.87100
H566        H  0.52640372  0.93303596  0.45979535    -0.07100
O567        O  0.46708302  0.85168852  0.49392730    -0.76100
Mg568      Mg  0.47215501  0.89247684  0.38269549     1.58000
H569        H  0.45144888  0.79582522  0.48979432    -0.07100
C570        C  0.40211890  0.71745111  0.40005667     0.92000
O571        O  0.40947989  0.80928415  0.33735555    -0.83400
C572        C  0.42246501  0.84274423  0.32746192     0.92100
O573        O  0.33032913  0.74532408  0.99704559    -0.83300
Mg574      Mg  0.45525616  0.90089061  0.49513263     1.58200
O575        O  0.40519550  0.74204784  0.38207195    -0.81700
O576        O  0.46233930  0.98665887  0.46406500    -0.83400
O577        O  0.59376507  0.37921711  0.71663153    -0.89000
C578        C  0.63359580  0.44673497  0.78084959     0.87100
Mg579      Mg  0.60181495  0.39579757  0.67630228     1.58100
O580        O  0.53590912  0.40240600  0.77704181    -0.88700
O581        O  0.54590213  0.34274612  0.74354631    -0.76000
C582        C  0.53074325  0.50984494  0.67297320     0.92100
O583        O  0.66413979  0.46484307  0.72275644    -0.75800
O584        O  0.55311974  0.50167100  0.66082519    -0.83300
Mg585      Mg  0.64272498  0.40584829  0.74203043     1.58000
C586        C  0.48542567  0.46887576  0.78259371     0.92000
O587        O  0.62339729  0.34677056  0.75424437    -0.81600
H588        H  0.48473324  0.35539583  0.77736469    -0.06900
C589        C  0.59121975  0.50943223  0.73889613     0.87000
O590        O  0.53928588  0.38337786  0.67525078    -0.76100
O591        O  0.61213187  0.41629282  0.76958540    -0.88900
O592        O  0.50722261  0.46048591  0.79590876    -0.81700
C593        C  0.57652906  0.42137143  0.84246311     0.92200
C594        C  0.60417942  0.32198038  0.77153234     0.92000
Mg595      Mg  0.51199159  0.44944759  0.72465033     1.58000
O596        O  0.52277881  0.50197531  0.69793412    -0.81600
O597        O  0.49071321  0.39443401  0.74915396    -0.75900
O598        O  0.57936588  0.39607398  0.82870602    -0.81700
O599        O  0.68061195  0.39770289  0.71775268    -0.83400
O600        O  0.57702516  0.44626568  0.63546276    -0.81700
C601        C  0.50300929  0.38325323  0.76865372     0.86400
O602        O  0.54021762  0.43170839  0.69545163    -0.88900
O603        O  0.56486332  0.47817840  0.74648544    -0.89000
O604        O  0.60395988  0.51464885  0.71493374    -0.76000
Mg605      Mg  0.56248862  0.36962764  0.78536946     1.58000
O606        O  0.56554697  0.44339022  0.83210361    -0.83400
H607        H  0.54882612  0.33031088  0.70451229    -0.07100
O608        O  0.62326953  0.45409973  0.68990815    -0.88700
H609        H  0.66948842  0.50518245  0.69582650    -0.07000
H610        H  0.49218967  0.38809447  0.68083264    -0.07100
C611        C  0.65311904  0.47567591  0.70215926     0.86400
C612        C  0.56277499  0.34989493  0.72094388     0.87000
C613        C  0.52246375  0.40066258  0.68386633     0.87100
H614        H  0.60394600  0.53282445  0.75301603    -0.07100
O615        O  0.62276410  0.47012073  0.78670741    -0.76100
Mg616      Mg  0.58925110  0.47777043  0.67630775     1.58000
H617        H  0.66301001  0.45476393  0.78398557    -0.07100
C618        C  0.68577354  0.39931605  0.69298687     0.92000
O619        O  0.60454540  0.41067855  0.63163169    -0.83400
C620        C  0.58642612  0.42596629  0.62139292     0.92100
O621        O  0.58717421  0.32879187  0.79049976    -0.83300
Mg622      Mg  0.56351755  0.46141657  0.78859407     1.58200
O623        O  0.66302102  0.40184871  0.67607536    -0.81700
O624        O  0.48434935  0.46859191  0.75683683    -0.83400
O625        O  0.59369231  0.37918842  0.96662242    -0.89000
C626        C  0.63350382  0.44668983  0.53082944     0.87100
Mg627      Mg  0.60177877  0.39580239  0.92630429     1.58100
O628        O  0.53581846  0.40234113  0.52703629    -0.88700
O629        O  0.54581496  0.34270870  0.99352430    -0.76000
C630        C  0.53068217  0.50982413  0.92297617     0.92100
O631        O  0.66407964  0.46480781  0.97277329    -0.75800
O632        O  0.55307468  0.50166743  0.91083325    -0.83300
Mg633      Mg  0.64264063  0.40578961  0.99203104     1.58000
C634        C  0.48532702  0.46878682  0.53259398     0.92000
O635        O  0.62327620  0.34667293  0.50419835    -0.81600
H636        H  0.48464967  0.35532120  0.52734684    -0.06900
C637        C  0.59109514  0.50938257  0.98890784     0.87000
O638        O  0.53924192  0.38336498  0.92522301    -0.76100
O639        O  0.61204141  0.41623886  0.51957340    -0.88900
O640        O  0.50711326  0.46038248  0.54590860    -0.81700
C641        C  0.57647574  0.42131447  0.59245604     0.92200
C642        C  0.60403911  0.32188028  0.52148072     0.92000
Mg643      Mg  0.51189363  0.44937860  0.97464167     1.58000
O644        O  0.52267095  0.50190737  0.94792772    -0.81600
O645        O  0.49062823  0.39436097  0.99913824    -0.75900
O646        O  0.57930242  0.39601412  0.57869438    -0.81700
O647        O  0.68054095  0.39765476  0.96777473    -0.83400
O648        O  0.57701379  0.44628362  0.88547026    -0.81700
C649        C  0.50292258  0.38318290  0.51864086     0.86400
O650        O  0.54014171  0.43167072  0.94543856    -0.88900
O651        O  0.56475208  0.47811447  0.99648564    -0.89000
O652        O  0.60385657  0.51461846  0.96495158    -0.76000
Mg653      Mg  0.56240415  0.36956996  0.53535374     1.58000
O654        O  0.56547839  0.44332550  0.58210251    -0.83400
H655        H  0.54874732  0.33029869  0.95448538    -0.07100
O656        O  0.62320331  0.45408591  0.93993427    -0.88700
H657        H  0.66942561  0.50516470  0.94585872    -0.07000
H658        H  0.49213285  0.38806467  0.93078888    -0.07100
C659        C  0.65305519  0.47565532  0.95218513     0.86400
C660        C  0.56269476  0.34986959  0.97092388     0.87000
C661        C  0.52240444  0.40063524  0.93383773     0.87100
H662        H  0.60379263  0.53276959  0.00303323    -0.07100
O663        O  0.62266644  0.47007135  0.53668665    -0.76100
Mg664      Mg  0.58919173  0.47775802  0.92632275     1.58000
H665        H  0.66292261  0.45473081  0.53395717    -0.07100
C666        C  0.68573846  0.39933860  0.94301275     0.92000
O667        O  0.60456446  0.41072375  0.88164661    -0.83400
C668        C  0.58644549  0.42600680  0.87140270     0.92100
O669        O  0.58707726  0.32872173  0.54046361    -0.83300
Mg670      Mg  0.56341802  0.46134666  0.53859033     1.58200
O671        O  0.66299772  0.40189350  0.92610239    -0.81700
O672        O  0.48424798  0.46850596  0.50683665    -0.83400
O673        O  0.41496707  0.62427737  0.58703729    -0.89000
C674        C  0.36644314  0.55464903  0.65010998     0.87100
Mg675      Mg  0.40131668  0.60421067  0.54709030     1.58100
O676        O  0.46532110  0.59504202  0.65012640    -0.88700
O677        O  0.46142127  0.65819898  0.61574594    -0.76000
C678        C  0.46487408  0.48439710  0.54760614     0.92100
O679        O  0.33694733  0.54528310  0.59136925    -0.75800
O680        O  0.44339582  0.49344228  0.53475533    -0.83300
Mg681      Mg  0.36661568  0.60624628  0.61009505     1.58000
C682        C  0.51013815  0.52489422  0.65713782     0.92000
O683        O  0.39306336  0.66705017  0.62275912    -0.81600
H684        H  0.51737404  0.64077610  0.65019642    -0.06900
C685        C  0.40598801  0.48852449  0.61192611     0.87000
O686        O  0.46316964  0.61413739  0.54519080    -0.76100
O687        O  0.39093678  0.58478928  0.63862973    -0.88900
O688        O  0.48754544  0.53257456  0.66972906    -0.81700
C689        C  0.42209926  0.57518621  0.71445134     0.92200
C690        C  0.40527377  0.68368668  0.64475472     0.92000
Mg691      Mg  0.48611868  0.54619547  0.59806246     1.58000
O692        O  0.47263036  0.49235851  0.57255386    -0.81600
O693        O  0.50938432  0.60151935  0.62191854    -0.75900
O694        O  0.42096097  0.60150915  0.70054390    -0.81700
O695        O  0.34212582  0.62898025  0.58334848    -0.83400
O696        O  0.42226826  0.55101206  0.50784106    -0.81700
C697        C  0.49819457  0.61315924  0.64159445     0.86400
O698        O  0.45991344  0.56565360  0.56761576    -0.88900
O699        O  0.43278993  0.51954247  0.61927069    -0.89000
O700        O  0.39324189  0.48340447  0.58796330    -0.76000
Mg701      Mg  0.44111467  0.62972247  0.65772008     1.58000
O702        O  0.43169286  0.55221224  0.70434101    -0.83400
H703        H  0.46299990  0.67129071  0.57604373    -0.07100
O704        O  0.37910048  0.54762257  0.56272061    -0.88700
H705        H  0.32859123  0.50036238  0.56812134    -0.07000
H706        H  0.50861788  0.60662342  0.55164317    -0.07100
C707        C  0.34756124  0.52975900  0.57368482     0.86400
C708        C  0.44682050  0.65200067  0.59217262     0.87000
C709        C  0.47866179  0.59583236  0.55489243     0.87100
H710        H  0.39280682  0.46534085  0.62628638    -0.07100
O711        O  0.37492911  0.52998850  0.65779894    -0.76100
Mg712      Mg  0.40946560  0.52022446  0.54927691     1.58000
H713        H  0.33753088  0.54886012  0.65191734    -0.07100
C714        C  0.32259177  0.60729984  0.56495917     0.92000
O715        O  0.39441516  0.58623130  0.50322055    -0.83400
C716        C  0.41240507  0.57082736  0.99334110     0.92100
O717        O  0.41640623  0.66951504  0.66340377    -0.83300
Mg718      Mg  0.43352967  0.53534161  0.66108727     1.58200
O719        O  0.33692570  0.59322366  0.54879312    -0.81700
O720        O  0.51230486  0.52592376  0.63139391    -0.83400
O721        O  0.41490917  0.62424191  0.83701671    -0.89000
C722        C  0.36639124  0.55460738  0.90009153     0.87100
Mg723      Mg  0.40126284  0.60417963  0.79707053     1.58100
O724        O  0.46527740  0.59503720  0.90012216    -0.88700
O725        O  0.46135112  0.65816992  0.86573113    -0.76000
C726        C  0.46494246  0.48445816  0.79760391     0.92100
O727        O  0.33689293  0.54524351  0.84133886    -0.75800
O728        O  0.44345099  0.49348490  0.78475128    -0.83300
Mg729      Mg  0.36656102  0.60620475  0.86007204     1.58000
C730        C  0.51010662  0.52490403  0.90714072     0.92000
O731        O  0.39300903  0.66700221  0.87273469    -0.81600
H732        H  0.51732000  0.64078658  0.90020350    -0.06900
C733        C  0.40598827  0.48852183  0.86191701     0.87000
O734        O  0.46312406  0.61412770  0.79517492    -0.76100
O735        O  0.39088207  0.58474529  0.88860843    -0.88900
O736        O  0.48751234  0.53258298  0.91972963    -0.81700
C737        C  0.42207407  0.57518016  0.96445114     0.92200
C738        C  0.40519020  0.68362265  0.89473786     0.92000
Mg739      Mg  0.48611378  0.54622533  0.84806419     1.58000
O740        O  0.47267384  0.49240491  0.82255516    -0.81600
O741        O  0.50935702  0.60154453  0.87192106    -0.75900
O742        O  0.42091762  0.60149231  0.95054165    -0.81700
O743        O  0.34209413  0.62896562  0.83333009    -0.83400
O744        O  0.42227101  0.55101486  0.75784043    -0.81700
C745        C  0.49815290  0.61316935  0.89159681     0.86400
O746        O  0.45989454  0.56566820  0.81761568    -0.88900
O747        O  0.43277559  0.51954735  0.86926425    -0.89000
O748        O  0.39324885  0.48339630  0.83795221    -0.76000
Mg749      Mg  0.44104743  0.62969163  0.90770834     1.58000
O750        O  0.43166011  0.55220330  0.95433663    -0.83400
H751        H  0.46293849  0.67126234  0.82602802    -0.07100
O752        O  0.37906033  0.54759036  0.81270094    -0.88700
H753        H  0.32854997  0.50032653  0.81809100    -0.07000
H754        H  0.50859008  0.60664621  0.80163810    -0.07100
C755        C  0.34751644  0.52972231  0.82365840     0.86400
C756        C  0.44675791  0.65196932  0.84215525     0.87000
C757        C  0.47863177  0.59584309  0.80488636     0.87100
H758        H  0.39281458  0.46533612  0.87627631    -0.07100
O759        O  0.37488633  0.52995801  0.90779077    -0.76100
Mg760      Mg  0.40946805  0.52022174  0.79926877     1.58000
H761        H  0.33747610  0.54881145  0.90189405    -0.07100
C762        C  0.32255064  0.60729980  0.81493884     0.92000
O763        O  0.39437650  0.58619442  0.75320261    -0.83400
C764        C  0.41239970  0.57081767  0.74333461     0.92100
O765        O  0.41630738  0.66944615  0.91339159    -0.83300
Mg766      Mg  0.43349796  0.53533631  0.91108189     1.58200
O767        O  0.33686553  0.59320393  0.79877142    -0.81700
O768        O  0.51229232  0.52595319  0.88139785    -0.83400
O769        O  0.21667471  0.58755744  0.50676818    -0.89000
C770        C  0.18639283  0.62575113  0.57201010     0.87100
Mg771      Mg  0.20798956  0.59644003  0.96648667     1.58100
O772        O  0.13537869  0.52751845  0.56824634    -0.88700
O773        O  0.20535492  0.53941351  0.53414700    -0.76000
C774        C  0.02146843  0.52469397  0.96552387     0.92100
O775        O  0.19917975  0.65716245  0.51266071    -0.75800
O776        O  0.05177282  0.54468682  0.95227267    -0.83300
Mg777      Mg  0.23639656  0.63584706  0.53203452     1.58000
C778        C  0.02015545  0.47936465  0.57514804     0.92000
O779        O  0.27765685  0.61875520  0.54533540    -0.81600
H780        H  0.13083966  0.47596406  0.56754560    -0.06900
C781        C  0.08437715  0.58419875  0.53023011     0.87000
O782        O  0.15783658  0.53294388  0.96645451    -0.76100
O783        O  0.19258048  0.60288232  0.55883980    -0.88900
O784        O  0.05171737  0.49685028  0.58750387    -0.81700
C785        C  0.15626223  0.56831361  0.63348945     0.92200
C786        C  0.28390748  0.60059702  0.56322019     0.92000
Mg787      Mg  0.06376405  0.50497878  0.51636956     1.58000
O788        O  0.02225593  0.51753391  0.99058730    -0.81600
O789        O  0.09728805  0.48278984  0.54034556    -0.75900
O790        O  0.18437313  0.57154980  0.61965304    -0.81700
O791        O  0.28137157  0.67379139  0.00843569    -0.83400
O792        O  0.13175740  0.56884615  0.92639800    -0.81700
C793        C  0.12133909  0.49467110  0.55943179     0.86400
O794        O  0.10957252  0.53239347  0.98645221    -0.88900
O795        O  0.08934237  0.55778388  0.53787395    -0.89000
O796        O  0.09096877  0.59644610  0.50601915    -0.76000
Mg797      Mg  0.19425209  0.55459911  0.57638545     1.58000
O798        O  0.12324501  0.55645097  0.62334752    -0.83400
H799        H  0.22077296  0.54244504  0.49509003    -0.07100
O800        O  0.16995955  0.61608621  0.98006393    -0.88700
H801        H  0.16448739  0.66213845  0.98545137    -0.07000
H802        H  0.10687397  0.48465046  0.97259404    -0.07100
C803        C  0.17772962  0.64597911  0.99203099     0.86400
C804        C  0.21503790  0.55642946  0.51139790     0.87000
C805        C  0.12378200  0.51522074  0.97525420     0.87100
H806        H  0.07421508  0.59721333  0.54443084    -0.07100
O807        O  0.15311071  0.61591180  0.57930868    -0.76100
Mg808      Mg  0.11233655  0.58131607  0.96708207     1.58000
H809        H  0.20906997  0.65473993  0.57520590    -0.07100
C810        C  0.28683473  0.68212759  0.98413343     0.92000
O811        O  0.19483724  0.59852920  0.92209259    -0.83400
C812        C  0.16148280  0.57899840  0.91221788     0.92100
O813        O  0.25937976  0.58182335  0.58145944    -0.83300
Mg814      Mg  0.10401372  0.55512618  0.58014261     1.58200
O815        O  0.26350726  0.66055082  0.96575553    -0.81700
O816        O  0.01785634  0.47979282  0.54944925    -0.83400
O817        O  0.21667412  0.58760196  0.75676832    -0.89000
C818        C  0.18637330  0.62582365  0.82198983     0.87100
Mg819      Mg  0.20801005  0.59645379  0.71648112     1.58100
O820        O  0.13536410  0.52759120  0.81825613    -0.88700
O821        O  0.20532720  0.53946252  0.78416016    -0.76000
C822        C  0.02148275  0.52470102  0.71550482     0.92100
O823        O  0.19916696  0.65720448  0.76262452    -0.75800
O824        O  0.05178895  0.54466980  0.70224967    -0.83300
Mg825      Mg  0.23638076  0.63590162  0.78202122     1.58000
C826        C  0.02015520  0.47943358  0.82515171     0.92000
O827        O  0.27763431  0.61879934  0.79532628    -0.81600
H828        H  0.13082043  0.47603392  0.81759005    -0.06900
C829        C  0.08438782  0.58425660  0.78019761     0.87000
O830        O  0.15785211  0.53295581  0.71646967    -0.76100
O831        O  0.19255754  0.60294642  0.80882685    -0.88900
O832        O  0.05171713  0.49692555  0.83750596    -0.81700
C833        C  0.15624414  0.56839545  0.88349125     0.92200
C834        C  0.28387707  0.60063163  0.81320853     0.92000
Mg835      Mg  0.06376768  0.50502274  0.76637342     1.58000
O836        O  0.02226922  0.51757273  0.74057442    -0.81600
O837        O  0.09727765  0.48283869  0.79036999    -0.75900
O838        O  0.18435557  0.57163146  0.86965537    -0.81700
O839        O  0.28135931  0.67384461  0.75842397    -0.83400
O840        O  0.13178178  0.56880638  0.67638923    -0.81700
C841        C  0.12132369  0.49473512  0.80945896     0.86400
O842        O  0.10958942  0.53241794  0.73645984    -0.88900
O843        O  0.08933978  0.55784061  0.78786131    -0.89000
O844        O  0.09098595  0.59648204  0.75598089    -0.76000
Mg845      Mg  0.19423157  0.55467066  0.82638999     1.58000
O846        O  0.12323056  0.55654540  0.87334627    -0.83400
H847        H  0.22075664  0.54247399  0.74510845    -0.07100
O848        O  0.16997642  0.61611231  0.73003033    -0.88700
H849        H  0.16449408  0.66216374  0.73538811    -0.07000
H850        H  0.10689298  0.48466458  0.72262627    -0.07100
C851        C  0.17773497  0.64601069  0.74198547     0.86400
C852        C  0.21502368  0.55647029  0.76140922     0.87000
C853        C  0.12379947  0.51523733  0.72527381     0.87100
H854        H  0.07423055  0.59729084  0.79438552    -0.07100
O855        O  0.15309355  0.61598894  0.82929158    -0.76100
Mg856      Mg  0.11235336  0.58131803  0.71705653     1.58000
H857        H  0.20905125  0.65481443  0.82517697    -0.07100
C858        C  0.28685618  0.68216006  0.73412003     0.92000
O859        O  0.19486251  0.59849459  0.67208015    -0.83400
C860        C  0.16150637  0.57894454  0.66221074     0.92100
O861        O  0.25935489  0.58187954  0.83145573    -0.83300
Mg862      Mg  0.10400154  0.55520357  0.83013702     1.58200
O863        O  0.26354806  0.66056712  0.71573785    -0.81700
O864        O  0.01785412  0.47985543  0.79945244    -0.83400
O865        O  0.78824249  0.37320318  0.66017424    -0.89000
C866        C  0.81800173  0.44442106  0.59632535     0.87100
Mg867      Mg  0.79866465  0.39180627  0.70007917     1.58100
O868        O  0.87039511  0.39784009  0.59894375    -0.88700
O869        O  0.80033793  0.33788738  0.63245475    -0.76000
C870        C  0.98464118  0.50663730  0.70103595     0.92100
O871        O  0.80174733  0.45873864  0.65533619    -0.75800
O872        O  0.95439815  0.49719444  0.71410373    -0.83300
Mg873      Mg  0.76521276  0.39975114  0.63558121     1.58000
C874        C  0.98533262  0.46324163  0.59142596     0.92000
O875        O  0.72469968  0.33999458  0.62181331    -0.81600
H876        H  0.87442319  0.35055061  0.59881588    -0.06900
C877        C  0.92207815  0.50475449  0.63643402     0.87000
O878        O  0.84856986  0.37856758  0.70047731    -0.76100
O879        O  0.81067405  0.41415966  0.60864055    -0.88900
O880        O  0.95430766  0.45284139  0.57897461    -0.81700
C881        C  0.84972345  0.41834340  0.53349070     0.92200
C882        C  0.72120336  0.31938410  0.60195230     0.92000
Mg883      Mg  0.94194990  0.44508844  0.65033827     1.58000
O884        O  0.98383832  0.49850684  0.67608018    -0.81600
O885        O  0.90806065  0.38978220  0.62645534    -0.75900
O886        O  0.82160544  0.39344061  0.54739074    -0.81700
O887        O  0.71862773  0.38940388  0.65981952    -0.83400
O888        O  0.87473584  0.44196874  0.74028792    -0.81700
C889        C  0.88418695  0.37852886  0.60729719     0.86400
O890        O  0.89655091  0.42688136  0.68035856    -0.88900
O891        O  0.91683848  0.47332802  0.62896538    -0.89000
O892        O  0.91518907  0.51016790  0.66048433    -0.76000
Mg893      Mg  0.81170691  0.36618349  0.59059232     1.58000
O894        O  0.88242292  0.44009075  0.54379694    -0.83400
H895        H  0.78482241  0.32396237  0.67144137    -0.07100
O896        O  0.83583864  0.44916948  0.68563446    -0.88700
H897        H  0.83856021  0.49972590  0.68093911    -0.07000
H898        H  0.89983415  0.38213434  0.69457895    -0.07100
C899        C  0.82580599  0.47031793  0.67455479     0.86400
C900        C  0.79037395  0.34415418  0.65531887     0.87000
C901        C  0.88265118  0.39544197  0.69176081     0.87100
H902        H  0.93253664  0.52811020  0.62216539    -0.07100
O903        O  0.85152081  0.46756563  0.58901688    -0.76100
Mg904      Mg  0.89368766  0.47313249  0.69917948     1.58000
H905        H  0.79602040  0.45182583  0.59369345    -0.07100
C906        C  0.71853945  0.39693633  0.68410238     0.92000
O907        O  0.81174222  0.40805130  0.74424447    -0.83400
C908        C  0.84491446  0.42273009  0.75445978     0.92100
O909        O  0.74762187  0.32945025  0.58453487    -0.83300
Mg910      Mg  0.90139841  0.45700126  0.58703154     1.58200
O911        O  0.74527636  0.40158246  0.70041634    -0.81700
O912        O  0.98765710  0.46476747  0.61715560    -0.83400
O913        O  0.78820753  0.37331206  0.91017672    -0.89000
C914        C  0.81807290  0.44459231  0.84633897     0.87100
Mg915      Mg  0.79863864  0.39184303  0.95008910     1.58100
O916        O  0.87038927  0.39791541  0.84893776    -0.88700
O917        O  0.80028946  0.33799879  0.88244484    -0.76000
C918        C  0.98462800  0.50663971  0.95105529     0.92100
O919        O  0.80185844  0.45895642  0.90540388    -0.75800
O920        O  0.95438543  0.49717949  0.96412738    -0.83300
Mg921      Mg  0.76531562  0.40005416  0.88561075     1.58000
C922        C  0.98533468  0.46330683  0.84143181     0.92000
O923        O  0.72472185  0.34049884  0.87179961    -0.81600
H924        H  0.87440619  0.35061871  0.84879245    -0.06900
C925        C  0.92207775  0.50481286  0.88646241     0.87000
O926        O  0.84853389  0.37858545  0.95045546    -0.76100
O927        O  0.81077067  0.41436764  0.85868918    -0.88900
O928        O  0.95430878  0.45290164  0.82898176    -0.81700
C929        C  0.84974072  0.41843937  0.78349220     0.92200
C930        C  0.72114267  0.31987079  0.85194624     0.92000
Mg931      Mg  0.94194067  0.44513050  0.90033879     1.58000
O932        O  0.98382532  0.49853413  0.92609449    -0.81600
O933        O  0.90805126  0.38983524  0.87643861    -0.75900
O934        O  0.82161116  0.39357352  0.79740092    -0.81700
O935        O  0.71872888  0.38970251  0.90981852    -0.83400
O936        O  0.87471315  0.44193258  0.99029677    -0.81700
C937        C  0.88417349  0.37859266  0.85728255     0.86400
O938        O  0.89652976  0.42690561  0.93035382    -0.88900
O939        O  0.91684486  0.47339480  0.87897687    -0.89000
O940        O  0.91518629  0.51020489  0.91051838    -0.76000
Mg941      Mg  0.81168312  0.36633901  0.84060489     1.58000
O942        O  0.88244452  0.44017921  0.79379640    -0.83400
H943        H  0.78473753  0.32404024  0.92142067    -0.07100
O944        O  0.83584723  0.44922525  0.93568282    -0.88700
H945        H  0.83863966  0.49982559  0.93108236    -0.07000
H946        H  0.89978607  0.38213005  0.94454392    -0.07100
C947        C  0.82586605  0.47043833  0.92464675     0.86400
C948        C  0.79031231  0.34425101  0.90530708     0.87000
C949        C  0.88261555  0.39545388  0.94173952     0.87100
H950        H  0.93253436  0.52818087  0.87220417    -0.07100
O951        O  0.85157951  0.46771253  0.83900044    -0.76100
Mg952      Mg  0.89368322  0.47314415  0.94920768     1.58000
H953        H  0.79608682  0.45198920  0.84370157    -0.07100
C954        C  0.71854528  0.39704059  0.93412815     0.92000
O955        O  0.81171804  0.40802289  0.99425842    -0.83400
C956        C  0.84489211  0.42267667  0.50446666     0.92100
O957        O  0.74758063  0.32977249  0.83456411    -0.83300
Mg958      Mg  0.90141895  0.45708912  0.83703444     1.58200
O959        O  0.74523251  0.40158986  0.95045802    -0.81700
O960        O  0.98765927  0.46482919  0.86716155    -0.83400
O961        O  0.59010446  0.21662867  0.57384962    -0.89000
C962        C  0.62675321  0.18681773  0.50873792     0.87100
Mg963      Mg  0.59830132  0.20808775  0.61427407     1.58100
O964        O  0.52934308  0.13670899  0.51311116    -0.88700
O965        O  0.54268009  0.20720785  0.54692651    -0.76000
C966        C  0.52182371  0.02051557  0.61577528     0.92100
O967        O  0.65625088  0.19586758  0.56688754    -0.75800
O968        O  0.54226778  0.05088522  0.62893898    -0.83300
Mg969      Mg  0.63775022  0.23594400  0.54813832     1.58000
C970        C  0.47775433  0.02006251  0.50585426     0.92000
O971        O  0.62150311  0.27847218  0.53642361    -0.81600
H972        H  0.47873906  0.13370158  0.51287957    -0.06900
C973        C  0.58201370  0.08215593  0.55096959     0.87000
O974        O  0.53451854  0.15926467  0.61445550    -0.76100
O975        O  0.60596845  0.19629758  0.52028341    -0.88900
O976        O  0.49642384  0.05159213  0.99333213    -0.81700
C977        C  0.56939385  0.15705547  0.94762732     0.92200
C978        C  0.60298903  0.28528210  0.51920467     0.92000
Mg979      Mg  0.50392322  0.06410128  0.56462715     1.58000
O980        O  0.51459077  0.02136071  0.59073450    -0.81600
O981        O  0.48352730  0.09902668  0.54036800    -0.75900
O982        O  0.57336351  0.18564734  0.96141728    -0.81700
O983        O  0.67679607  0.27926785  0.57265201    -0.83400
O984        O  0.56874413  0.13169706  0.65465542    -0.81700
C985        C  0.49648332  0.12334609  0.52137864     0.86400
O986        O  0.53236167  0.11008837  0.59440793    -0.88900
O987        O  0.55647610  0.08824350  0.54327192    -0.89000
O988        O  0.59417989  0.08853219  0.57517402    -0.76000
Mg989      Mg  0.55768165  0.19603026  0.50487956     1.58000
O990        O  0.55719149  0.12383461  0.95788962    -0.83400
H991        H  0.54651424  0.22261847  0.58603078    -0.07100
O992        O  0.61658574  0.16878685  0.60074554    -0.88700
H993        H  0.66043119  0.16046535  0.59405017    -0.07000
H994        H  0.48557106  0.10889073  0.60824825    -0.07100
C995        C  0.64528792  0.17494580  0.58791795     0.86400
C996        C  0.55974648  0.21628201  0.56955937     0.87000
C997        C  0.51602601  0.12512801  0.60561057     0.87100
H998        H  0.59431298  0.07117996  0.53682442    -0.07100
O999        O  0.61514078  0.15239379  0.50289235    -0.76100
Mg1000     Mg  0.58021837  0.11124548  0.61394824     1.58000
H1001       H  0.65626687  0.20785405  0.50548848    -0.07100
C1002       C  0.68459865  0.28506972  0.59699554     0.92000
O1003       O  0.59987663  0.19513975  0.65875516    -0.83400
C1004       C  0.57975550  0.16179488  0.66876816     0.92100
O1005       O  0.58511108  0.26186631  0.00010465    -0.83300
Mg1006     Mg  0.55483622  0.10377918  0.50113450     1.58200
O1007       O  0.66229175  0.26240673  0.61532657    -0.82900
O1008       O  0.47775885  0.01794836  0.53158683    -0.83400
O1009       O  0.59036684  0.21701897  0.82373893    -0.89000
C1010       C  0.62685821  0.18696120  0.75849334     0.87100
Mg1011     Mg  0.59804108  0.20917122  0.86436519     1.58100
O1012       O  0.52947769  0.13679300  0.76307506    -0.88700
O1013       O  0.54287240  0.20732187  0.79676866    -0.76000
C1014       C  0.52143138  0.02011928  0.86588509     0.92100
O1015       O  0.65688005  0.19556184  0.81549354    -0.75800
O1016       O  0.54160977  0.05034490  0.87921505    -0.83300
Mg1017     Mg  0.63810759  0.23603824  0.79787440     1.58000
C1018       C  0.47780483  0.02013309  0.75591388     0.92000
O1019       O  0.62179811  0.27869798  0.78650313    -0.81600
H1020       H  0.47890811  0.13385959  0.76303388    -0.06900
C1021       C  0.58167875  0.08143026  0.80106690     0.87000
O1022       O  0.53461927  0.15945338  0.86427590    -0.76100
O1023       O  0.60617007  0.19661540  0.76998734    -0.88900
O1024       O  0.49655477  0.05165105  0.74339665    -0.81700
C1025       C  0.56953595  0.15701329  0.69757419     0.92200
C1026       C  0.60321616  0.28542901  0.76927022     0.92000
Mg1027     Mg  0.50405436  0.06412989  0.81473584     1.58000
O1028       O  0.51454895  0.02115701  0.84079250    -0.81600
O1029       O  0.48381062  0.09922155  0.79049376    -0.75900
O1030       O  0.57354448  0.18569186  0.71128292    -0.81700
O1031       O  0.67728099  0.27876707  0.82274285    -0.83400
O1032       O  0.56952937  0.13194964  0.90480785    -0.81700
C1033       C  0.49667684  0.12348674  0.77146217     0.86400
O1034       O  0.53267310  0.11007458  0.84457713    -0.88900
O1035       O  0.55659236  0.08822426  0.79340630    -0.89000
O1036       O  0.59357757  0.08716537  0.82534981    -0.76000
Mg1037     Mg  0.55783616  0.19614690  0.75475419     1.58000
O1038       O  0.55731622  0.12383563  0.70792349    -0.83400
H1039       H  0.54663700  0.22282947  0.83583068    -0.07100
O1040       O  0.61856706  0.16963216  0.85075986    -0.88700
H1041       H  0.66129780  0.15939597  0.84180735    -0.07000
H1042       H  0.48585926  0.10880711  0.85842392    -0.07100
C1043       C  0.64660430  0.17463861  0.83649105     0.86400
C1044       C  0.55994386  0.21652516  0.81939110     0.87000
C1045       C  0.51629454  0.12515008  0.85569894     0.87100
H1046       H  0.59371163  0.07026203  0.78685461    -0.07100
O1047       O  0.61523133  0.15244700  0.75291760    -0.76100
Mg1048     Mg  0.58011708  0.11021378  0.86421073     1.58000
H1049       H  0.65635900  0.20794283  0.75512824    -0.07100
C1050       C  0.68452773  0.28554931  0.84708789     0.92000
O1051       O  0.59894588  0.19556424  0.90883134    -0.83400
C1052       C  0.57965615  0.16202911  0.91883309     0.92100
O1053       O  0.58540108  0.26202987  0.75012861    -0.83300
Mg1054     Mg  0.55495785  0.10381109  0.75120811     1.58200
O1055       O  0.66165285  0.26384299  0.86554339    -0.81700
O1056       O  0.47777840  0.01801387  0.78164770    -0.83400
O1057       O  0.37500238  0.78599760  0.67178501    -0.89000
C1058       C  0.44427757  0.81804738  0.73669240     0.87100
Mg1059     Mg  0.39371748  0.79575180  0.63180856     1.58100
O1060       O  0.39655030  0.86883601  0.73309768    -0.88700
O1061       O  0.33901312  0.79795921  0.69894823    -0.76000
C1062       C  0.50376951  0.98355179  0.63031666     0.92100
O1063       O  0.46118768  0.80366206  0.67840962    -0.75800
O1064       O  0.49459737  0.95316930  0.61734970    -0.83300
Mg1065     Mg  0.40245050  0.76552072  0.69746478     1.58000
C1066       C  0.46078546  0.98481935  0.73986037     0.92000
O1067       O  0.34258708  0.72300744  0.71016928    -0.81600
H1068       H  0.34904385  0.87202500  0.73282088    -0.06900
C1069       C  0.50322336  0.92212766  0.69555342     0.87000
O1070       O  0.37877792  0.84491136  0.63113787    -0.76100
O1071       O  0.41460247  0.81069348  0.72382643    -0.88900
O1072       O  0.44962833  0.95360549  0.75254767    -0.81700
C1073       C  0.41738216  0.84808075  0.79858492     0.92200
C1074       C  0.32115647  0.71904992  0.72954966     0.92000
Mg1075     Mg  0.44293435  0.94031370  0.68119227     1.58000
O1076       O  0.49577133  0.98277580  0.65528742    -0.81600
O1077       O  0.38799218  0.90590397  0.70513078    -0.75900
O1078       O  0.39286170  0.81980430  0.78458108    -0.81700
O1079       O  0.39554542  0.72023875  0.67411833    -0.83400
O1080       O  0.44100588  0.87273128  0.59181238    -0.81700
C1081       C  0.37698895  0.88213582  0.72444872     0.86400
O1082       O  0.42553223  0.89410160  0.65150715    -0.88900
O1083       O  0.47171072  0.91621489  0.70300297    -0.89000
O1084       O  0.50890234  0.91536735  0.67150817    -0.76000
Mg1085     Mg  0.36597636  0.80980964  0.74126675     1.58000
O1086       O  0.43822498  0.88137730  0.78849162    -0.83400
H1087       H  0.32598509  0.78198552  0.65996027    -0.07100
O1088       O  0.45037587  0.83485574  0.64632686    -0.88700
H1089       H  0.50162224  0.84041190  0.65250832    -0.07000
H1090       H  0.38012169  0.89546114  0.63701405    -0.07100
C1091       C  0.47214013  0.82666969  0.65848101     0.86400
C1092       C  0.34584963  0.78789240  0.67627812     0.87000
C1093       C  0.39431482  0.87910930  0.63996802     0.87100
H1094       H  0.52646682  0.93317945  0.70981269    -0.07100
O1095       O  0.46713377  0.85179638  0.74389627    -0.76100
Mg1096     Mg  0.47228770  0.89267097  0.63269583     1.58000
H1097       H  0.45153517  0.79593979  0.73978268    -0.07100
C1098       C  0.40220616  0.71752211  0.65007586     0.92000
O1099       O  0.40954767  0.80938179  0.58739490    -0.83400
C1100       C  0.42252581  0.84282781  0.57747933     0.92100
O1101       O  0.33034236  0.74536332  0.74702916    -0.83300
Mg1102     Mg  0.45527192  0.90097406  0.74513049     1.58200
O1103       O  0.40527948  0.74212589  0.63209510    -0.81700
O1104       O  0.46239359  0.98678161  0.71410826    -0.83400
O1105       O  0.37494737  0.78593786  0.92177055    -0.89000
C1106       C  0.44422024  0.81795335  0.98670273     0.87100
Mg1107     Mg  0.39363716  0.79565230  0.88177989     1.58100
O1108       O  0.39652426  0.86877705  0.98312558    -0.88700
O1109       O  0.33899542  0.79792335  0.94895886    -0.76000
C1110       C  0.50341579  0.98315200  0.88032903     0.92100
O1111       O  0.46113403  0.80356025  0.92840999    -0.75800
O1112       O  0.49427147  0.95282837  0.86731909    -0.83300
Mg1113     Mg  0.40239143  0.76545727  0.94745469     1.58000
C1114       C  0.46077393  0.98473696  0.98981755     0.92000
O1115       O  0.34253337  0.72297570  0.96016368    -0.81600
H1116       H  0.34903076  0.87199035  0.98291582    -0.06900
C1117       C  0.50314791  0.92196899  0.94554561     0.87000
O1118       O  0.37868143  0.84479484  0.88108781    -0.76100
O1119       O  0.41456861  0.81063827  0.97382178    -0.88900
O1120       O  0.44967218  0.95354959  0.00252491    -0.81700
C1121       C  0.41740621  0.84810335  0.54859940     0.92200
C1122       C  0.32112421  0.71901748  0.97955773     0.92000
Mg1123     Mg  0.44281772  0.94009668  0.93120733     1.58000
O1124       O  0.49558827  0.98234998  0.90532946    -0.81600
O1125       O  0.38790299  0.90579910  0.95516330    -0.75900
O1126       O  0.39287850  0.81980133  0.53461163    -0.81700
O1127       O  0.39545897  0.72017254  0.92409882    -0.83400
O1128       O  0.44091509  0.87261419  0.84182123    -0.81700
C1129       C  0.37694911  0.88207453  0.97450387     0.86400
O1130       O  0.42540215  0.89386552  0.90155390    -0.88900
O1131       O  0.47163522  0.91604375  0.95300816    -0.89000
O1132       O  0.50881219  0.91520572  0.92149670    -0.76000
Mg1133     Mg  0.36596215  0.80976673  0.99128558     1.58000
O1134       O  0.43823984  0.88138336  0.53848658    -0.83400
H1135       H  0.32594279  0.78197499  0.90996809    -0.07100
O1136       O  0.45030339  0.83470782  0.89630777    -0.88700
H1137       H  0.50155391  0.84027216  0.90248547    -0.07000
H1138       H  0.38008740  0.89536612  0.88701431    -0.07100
C1139       C  0.47207501  0.82653695  0.90846565     0.86400
C1140       C  0.34581277  0.78786106  0.92627884     0.87000
C1141       C  0.39422693  0.87896277  0.88996821     0.87100
H1142       H  0.52640367  0.93303603  0.95979531    -0.07100
O1143       O  0.46708303  0.85168871  0.99392730    -0.76100
Mg1144     Mg  0.47215497  0.89247690  0.88269544     1.58000
H1145       H  0.45144907  0.79582545  0.98979436    -0.07100
C1146       C  0.40211905  0.71745114  0.90005661     0.92000
O1147       O  0.40947976  0.80928416  0.83735550    -0.83400
C1148       C  0.42246487  0.84274425  0.82746188     0.92100
O1149       O  0.33032905  0.74532407  0.49704565    -0.83300
Mg1150     Mg  0.45525604  0.90089071  0.99513259     1.58200
O1151       O  0.40519545  0.74204778  0.88207186    -0.81700
O1152       O  0.46233928  0.98665897  0.96406495    -0.83400
loop_ 
_geom_bond_atom_site_label_1 
_geom_bond_atom_site_label_2 
_geom_bond_distance 
_geom_bond_site_symmetry_2 
_ccdc_geom_bond_type 
O1           Mg3   2.084       .  S
O1           Mg9   2.135       .  S
O1           C36   1.243       .  S
C2           O15   1.232       .  S
C2           O39   1.261       .  A
C2           H41   1.081       .  S
Mg3          O32   2.174       .  S
Mg3          O47   2.374       .  S
Mg3          O43   2.285       .  S
Mg3          O14   2.331       .  S
O4          Mg46   2.147       .  S
O4          Mg29   2.123       .  S
O4           C25   1.235       .  S
O5           C36   1.273       .  A
O5          Mg29   2.288       .  S
C6            O8   1.268       .  A
C6           O20   1.281       .  A
C6          C106   1.478       .  S
O7           C35   1.275       .  A
O7           Mg9   2.295       .  S
O8          Mg40   2.252       .  S
Mg9          O15   2.036       .  S
Mg9          O23   2.112       .  S
Mg9          O11   2.191       .  S
C10          O48   1.280       .  A
C10          O16   1.276       .  A
C10         C150   1.476       .  S
O11          C18   1.252       .  A
H12          C25   1.081       .  S
C13          O27   1.238       .  S
C13          O28   1.275       .  A
C13          H38   1.081       .  S
O14          C37   1.273       .  A
O15         Mg29   2.107       .  S
O16         Mg46   2.299       .  S
C17          O30   1.282       .  A
C17          O22   1.285       .  A
C17          C92   1.479       .  S
C18          O45   1.281       .  A
C18         C450   1.463       .  S
Mg19         O26   2.187       .  S
Mg19         O27   2.154       .  S
Mg19         O20   2.346       .  S
Mg19         O21   2.287       .  S
Mg19         O48   2.306       .  S
O21          C25   1.268       .  A
O22         Mg29   2.351       .  S
O23          C42   1.245       .  A
O24          C44   1.276       .  A
O24         Mg40   2.318       .  S
O26         Mg40   2.153       .  S
O26          C37   1.235       .  S
O27         Mg46   2.188       .  S
O28         Mg40   2.322       .  S
Mg29         O45   2.332       .  S
O30         Mg46   2.292       .  S
H31          C36   1.081       .  S
O32         Mg40   2.141       .  S
O32          C35   1.243       .  S
H33          C35   1.081       .  S
H34          C37   1.081       .  S
O39         Mg46   2.254       .  S
C42          O47   1.287       .  A
C42         C330   1.453       .  S
O43          C44   1.276       .  A
C44          C65   1.479       .  S
O49         Mg51   2.084       .  S
O49         Mg57   2.135       .  S
O49          C84   1.243       .  S
C50          O63   1.232       .  S
C50          O87   1.261       .  A
C50          H89   1.081       .  S
Mg51         O80   2.174       .  S
Mg51         O95   2.374       .  S
Mg51         O91   2.285       .  S
Mg51         O62   2.331       .  S
O52         Mg94   2.147       .  S
O52         Mg77   2.123       .  S
O52          C73   1.235       .  S
O53          C84   1.273       .  A
O53        Mg653   2.288       .  S
C54          O56   1.268       .  A
C54          O68   1.281       .  A
C54         C154   1.478       .  S
O55          C83   1.275       .  A
O55         Mg57   2.295       .  S
O56         Mg88   2.252       .  S
Mg57        O639   2.036       .  S
Mg57         O71   2.112       .  S
Mg57        O635   2.191       .  S
C58          O96   1.280       .  A
C58          O64   1.276       .  A
C58         C102   1.476       .  S
O59          C66   1.252       .  A
O59        Mg633   2.191   1_554  S
H60          C73   1.081       .  S
C61          O75   1.238       .  S
C61          O76   1.275       .  A
C61          H86   1.081       .  S
O62          C85   1.273       .  A
O63         Mg77   2.107       .  S
O63        Mg633   2.036   1_554  S
O64         Mg94   2.299       .  S
C65          O78   1.282       .  A
C65          O70   1.285       .  A
C66          O93   1.281       .  A
C66         C402   1.463       .  S
Mg67         O74   2.187       .  S
Mg67         O75   2.154       .  S
Mg67         O68   2.346       .  S
Mg67         O69   2.287       .  S
Mg67        O672   2.306       .  S
O69         C649   1.268       .  A
O70         Mg77   2.351       .  S
O71          C90   1.245       .  A
O72          C92   1.276       .  A
O72         Mg88   2.318       .  S
C73         O645   1.268   1_554  A
O74         Mg88   2.153       .  S
O74          C85   1.235       .  S
O75        Mg670   2.188       .  S
O76         Mg88   2.322       .  S
Mg77         O93   2.332       .  S
Mg77        O629   2.288   1_554  S
O78         Mg94   2.292       .  S
H79          C84   1.081       .  S
O80         Mg88   2.141       .  S
O80          C83   1.243       .  S
H81          C83   1.081       .  S
H82          C85   1.081       .  S
O87         Mg94   2.254       .  S
C90          O95   1.287       .  A
C90         C378   1.453       .  S
O91          C92   1.276       .  A
Mg94        O651   2.188   1_554  S
O96        Mg643   2.306   1_554  S
O97         Mg99   2.113       .  S
O97        Mg105   2.071       .  S
O97         C132   1.244       .  S
C98         O135   1.263       .  A
C98         H137   1.081       .  S
C98         O111   1.260       .  A
Mg99        O128   2.138       .  S
Mg99        O143   2.427       .  S
Mg99        O139   2.273       .  S
Mg99        O110   2.341       .  S
O100       Mg142   2.160       .  S
O100       Mg125   2.111       .  S
O100        C121   1.235       .  S
O101        C132   1.278       .  A
O101       Mg125   2.323       .  S
C102        O104   1.270       .  A
C102        O116   1.280       .  A
O103        C131   1.277       .  A
O103       Mg105   2.332       .  S
O104       Mg136   2.258       .  S
Mg105       O119   2.118       .  S
Mg105       O107   2.227       .  S
Mg105       O111   2.136       .  S
C106        O144   1.282       .  A
C106        O112   1.274       .  A
O107        C114   1.250       .  A
H108        C121   1.081       .  S
C109        O123   1.236       .  S
C109        O124   1.272       .  A
C109        H134   1.081       .  S
O110        C133   1.278       .  A
O111       Mg125   2.158       .  S
O112       Mg142   2.291       .  S
C113        O126   1.278       .  A
C113        O118   1.285       .  A
C113        C188   1.476       .  S
C114        O141   1.280       .  A
C114        C522   1.459       .  S
Mg115       O122   2.201       .  S
Mg115       O123   2.155       .  S
Mg115       O116   2.339       .  S
Mg115       O117   2.281       .  S
Mg115       O144   2.320       .  S
O117        C121   1.268       .  A
O118       Mg125   2.357       .  S
O119        C138   1.241       .  A
O120        C716   1.277   1_554  A
O120       Mg136   2.322       .  S
O122       Mg136   2.155       .  S
O122        C133   1.239       .  S
O123       Mg142   2.173       .  S
O124       Mg136   2.312       .  S
Mg125       O141   2.300       .  S
O126       Mg142   2.271       .  S
H127        C132   1.081       .  S
O128       Mg136   2.139       .  S
O128        C131   1.241       .  S
H129        C131   1.081       .  S
H130        C133   1.081       .  S
O135       Mg142   2.285       .  S
C138        O143   1.284       .  A
C138        C210   1.458       .  S
O139        C716   1.274   1_554  A
C140        O696   1.277       .  A
C140        O715   1.274       .  A
C140        C161   1.476       .  S
O145       Mg147   2.112       .  S
O145       Mg153   2.070       .  S
O145        C180   1.244       .  S
C146        O183   1.263       .  A
C146        H185   1.081       .  S
C146        O159   1.260       .  A
Mg147       O176   2.138       .  S
Mg147       O191   2.427       .  S
Mg147       O187   2.273       .  S
Mg147       O158   2.341       .  S
O148       Mg190   2.160       .  S
O148       Mg173   2.111       .  S
O148        C169   1.235       .  S
O149        C180   1.278       .  A
O149       Mg173   2.323       .  S
C150        O152   1.270       .  A
C150        O164   1.280       .  A
O151        C179   1.277       .  A
O151       Mg153   2.332       .  S
O152       Mg184   2.259       .  S
Mg153       O167   2.118       .  S
Mg153       O155   2.227       .  S
Mg153       O159   2.137       .  S
C154        O192   1.282       .  A
C154        O160   1.274       .  A
O155        C162   1.250       .  A
H156        C169   1.081       .  S
C157        O171   1.236       .  S
C157        O172   1.272       .  A
C157        H182   1.081       .  S
O158        C181   1.278       .  A
O159       Mg173   2.158       .  S
O160       Mg190   2.290       .  S
C161        O174   1.278       .  A
C161        O166   1.285       .  A
C162        O189   1.280       .  A
C162        C570   1.459       .  S
Mg163       O170   2.201       .  S
Mg163       O171   2.155       .  S
Mg163       O164   2.339       .  S
Mg163       O165   2.281       .  S
Mg163       O192   2.320       .  S
O165        C169   1.268       .  A
O166       Mg173   2.357       .  S
O167        C186   1.241       .  A
O168        C188   1.277       .  A
O168       Mg184   2.322       .  S
O170       Mg184   2.155       .  S
O170        C181   1.239       .  S
O171       Mg190   2.173       .  S
O172       Mg184   2.312       .  S
Mg173       O189   2.300       .  S
O174       Mg190   2.271       .  S
H175        C180   1.081       .  S
O176       Mg184   2.139       .  S
O176        C179   1.241       .  S
H177        C179   1.081       .  S
H178        C181   1.081       .  S
O183       Mg190   2.285       .  S
C186        O191   1.284       .  A
C186        C258   1.458       .  S
O187        C188   1.274       .  A
O193       Mg201   2.117       .  S
O193       Mg771   2.091   1_554  S
O193        C228   1.246       .  S
C194        O231   1.259       .  A
C194        H233   1.081       .  S
C194        O207   1.259       .  A
Mg195       O224   2.171       .  S
Mg195       O769   2.091       .  S
Mg195       O239   2.442       .  S
Mg195       O235   2.278       .  S
Mg195       O206   2.348       .  S
O196       Mg238   2.157       .  S
O196       Mg221   2.113       .  S
O196        C217   1.236       .  S
O197        C228   1.277       .  A
O197       Mg221   2.299       .  S
C198        O200   1.269       .  A
C198        O212   1.281       .  A
C198        C342   1.481   1_455  S
O199        C803   1.272   1_554  A
O199       Mg201   2.287       .  S
O200       Mg232   2.268       .  S
Mg201       O203   2.205       .  S
Mg201       O791   2.066       .  S
Mg201       O207   2.087       .  S
C202        O240   1.281       .  A
C202        O208   1.270       .  A
C202        C298   1.472   1_455  S
O203        C210   1.252       .  A
H204        C217   1.081       .  S
C205        O219   1.238       .  S
C205        O220   1.276       .  A
C205        H230   1.081       .  S
O206        C229   1.277       .  A
O207       Mg221   2.164       .  S
O208       Mg238   2.279       .  S
C209        O222   1.279       .  A
C209        O214   1.285       .  A
C209        C284   1.476       .  S
C210        O237   1.279       .  A
Mg211       O219   2.139       .  S
Mg211       O794   2.203   1_554  S
Mg211       O213   2.295       .  S
Mg211       O240   2.309       .  S
Mg211       O788   2.359   1_554  S
O212       Mg787   2.359       .  S
O213        C217   1.270       .  A
O214       Mg221   2.356       .  S
O215        C234   1.243       .  A
O215       Mg777   2.066       .  S
O216        C236   1.278       .  A
O216       Mg232   2.321       .  S
O218       Mg232   2.146       .  S
O218       Mg787   2.203       .  S
O218        C229   1.238       .  S
O219       Mg238   2.197       .  S
O220       Mg808   2.331   1_554  S
Mg221       O237   2.316       .  S
O222       Mg238   2.272       .  S
H223        C228   1.081   1_556  S
O224       Mg232   2.140       .  S
O224        C227   1.240       .  S
H225        C227   1.081       .  S
H226        C229   1.081       .  S
C227        O775   1.272       .  A
O231       Mg238   2.263       .  S
Mg232       O796   2.331       .  S
C234        O239   1.291       .  A
C234        C546   1.463       .  S
O235        C236   1.277       .  A
C236        C257   1.476       .  S
O241       Mg243   2.090       .  S
O241       Mg249   2.117       .  S
O241        C276   1.246       .  S
C242        O279   1.259       .  A
C242        H281   1.081       .  S
C242        O255   1.259       .  A
Mg243       O272   2.171       .  S
Mg243       O287   2.443       .  S
Mg243       O283   2.278       .  S
Mg243       O254   2.348       .  S
O244       Mg286   2.157       .  S
O244       Mg269   2.113       .  S
O244        C265   1.236       .  S
O245        C276   1.277       .  A
O245       Mg269   2.299       .  S
C246        O248   1.269       .  A
C246        O260   1.281       .  A
C246        C294   1.481   1_455  S
O247        C275   1.272       .  A
O247       Mg249   2.287       .  S
O248       Mg280   2.268       .  S
Mg249       O263   2.066       .  S
Mg249       O251   2.205       .  S
Mg249       O255   2.087       .  S
C250        O288   1.281       .  A
C250        O256   1.270       .  A
C250        C346   1.472   1_455  S
O251        C258   1.252       .  A
H252        C265   1.081       .  S
C253        O267   1.238       .  S
C253        O268   1.276       .  A
C253        H278   1.081       .  S
O254        C277   1.277       .  A
O255       Mg269   2.164       .  S
O256       Mg286   2.279       .  S
C257        O270   1.279       .  A
C257        O262   1.285       .  A
C258        O285   1.279       .  A
Mg259       O266   2.203       .  S
Mg259       O267   2.139       .  S
Mg259       O260   2.359       .  S
Mg259       O261   2.295       .  S
Mg259       O288   2.310       .  S
O261        C265   1.270       .  A
O262       Mg269   2.356       .  S
O263        C282   1.243       .  A
O264        C284   1.278       .  A
O264       Mg280   2.321       .  S
O266       Mg280   2.145       .  S
O266        C277   1.238       .  S
O267       Mg286   2.197       .  S
O268       Mg280   2.331       .  S
Mg269       O285   2.316       .  S
O270       Mg286   2.273       .  S
H271        C276   1.081       .  S
O272       Mg280   2.140       .  S
O272        C275   1.240       .  S
H273        C275   1.081       .  S
H274        C277   1.081       .  S
O279       Mg286   2.263       .  S
C282        O287   1.291       .  A
C282        C498   1.463       .  S
O283        C284   1.277       .  A
O289       Mg291   2.090       .  S
O289       Mg297   2.120       .  S
O289        C324   1.244       .  S
C290        O327   1.261       .  A
C290        H329   1.081       .  S
C290        O303   1.260       .  A
Mg291       O320   2.160       .  S
Mg291       O335   2.391       .  S
Mg291       O331   2.277       .  S
Mg291       O302   2.341       .  S
O292       Mg334   2.153       .  S
O292       Mg317   2.108       .  S
O292        C313   1.235       .  S
O293        C324   1.276       .  A
O293       Mg317   2.303       .  S
C294        O296   1.271       .  A
C294        O308   1.281       .  A
O295        C323   1.275       .  A
O295       Mg297   2.308       .  S
O296       Mg328   2.275       .  S
Mg297       O311   2.106       .  S
Mg297       O299   2.246       .  S
Mg297       O303   2.118       .  S
C298        O336   1.281       .  A
C298        O304   1.270       .  A
O299        C306   1.256       .  A
H300        C313   1.081       .  S
C301        O315   1.237       .  S
C301        O316   1.274       .  A
C301        H326   1.081       .  S
O302        C325   1.277       .  A
O303       Mg317   2.160       .  S
O304       Mg334   2.276       .  S
C305        O318   1.277       .  A
C305        O310   1.283       .  A
C305        C380   1.476       .  S
C306        O333   1.279       .  A
C306        C426   1.462       .  S
Mg307       O314   2.198       .  S
Mg307       O315   2.146       .  S
Mg307       O308   2.352       .  S
Mg307       O309   2.289       .  S
Mg307       O336   2.311       .  S
O309        C313   1.268       .  A
O310       Mg317   2.350       .  S
O311        C330   1.247       .  A
O312        C332   1.277       .  A
O312       Mg328   2.317       .  S
O314       Mg328   2.149       .  S
O314        C325   1.238       .  S
O315       Mg334   2.182       .  S
O316       Mg328   2.319       .  S
Mg317       O333   2.283       .  S
O318       Mg334   2.269       .  S
H319        C324   1.081       .  S
O320       Mg328   2.152       .  S
O320        C323   1.241       .  S
H321        C323   1.081       .  S
H322        C325   1.081       .  S
O327       Mg334   2.272       .  S
C330        O335   1.289       .  A
O331        C332   1.274       .  A
C332        C353   1.476       .  S
O337       Mg339   2.089       .  S
O337       Mg345   2.121       .  S
O337        C372   1.244       .  S
C338        O375   1.261       .  A
C338        H377   1.081       .  S
C338        O351   1.260       .  A
Mg339       O368   2.160       .  S
Mg339       O383   2.391       .  S
Mg339       O379   2.277       .  S
Mg339       O350   2.341       .  S
O340       Mg382   2.153       .  S
O340       Mg365   2.108       .  S
O340        C361   1.235       .  S
O341        C372   1.276       .  A
O341       Mg365   2.302       .  S
C342        O344   1.270       .  A
C342        O356   1.281       .  A
O343        C371   1.275       .  A
O343       Mg345   2.306       .  S
O344       Mg376   2.274       .  S
Mg345       O359   2.105       .  S
Mg345       O347   2.242       .  S
Mg345       O351   2.118       .  S
C346        O384   1.281       .  A
C346        O352   1.270       .  A
O347        C354   1.255       .  A
H348        C361   1.081       .  S
C349        O363   1.237       .  S
C349        O364   1.274       .  A
C349        H374   1.081       .  S
O350        C373   1.277       .  A
O351       Mg365   2.160       .  S
O352       Mg382   2.276       .  S
C353        O366   1.277       .  A
C353        O358   1.283       .  A
C354        O381   1.279       .  A
C354        C474   1.461       .  S
Mg355       O362   2.198       .  S
Mg355       O363   2.146       .  S
Mg355       O356   2.352       .  S
Mg355       O357   2.289       .  S
Mg355       O384   2.311       .  S
O357        C361   1.268       .  A
O358       Mg365   2.350       .  S
O359        C378   1.246       .  A
O360        C956   1.277       .  A
O360       Mg376   2.317       .  S
O362       Mg376   2.149       .  S
O362        C373   1.238       .  S
O363       Mg382   2.182       .  S
O364       Mg376   2.319       .  S
Mg365       O381   2.283       .  S
O366       Mg382   2.270       .  S
H367        C372   1.081       .  S
O368       Mg376   2.152       .  S
O368        C371   1.240       .  S
H369        C371   1.081       .  S
H370        C373   1.081       .  S
O375       Mg382   2.272       .  S
C378        O383   1.289       .  A
O379        C956   1.274       .  A
C380        O936   1.277   1_554  A
C380        O955   1.274   1_554  A
O385       Mg387   2.089       .  S
O385       Mg393   2.120       .  S
O385        C420   1.244       .  S
C386        O399   1.233       .  S
C386        O423   1.261       .  A
C386        H425   1.081       .  S
Mg387       O416   2.172       .  S
Mg387       O431   2.425       .  S
Mg387       O427   2.276       .  S
Mg387       O398   2.346       .  S
O388       Mg430   2.142       .  S
O388       Mg413   2.116       .  S
O388        C409   1.235       .  S
O389        C420   1.274       .  A
O389       Mg413   2.289       .  S
C390        O392   1.269       .  A
C390        O404   1.281       .  A
C390        C486   1.480   1_545  S
O391        C419   1.274       .  A
O391       Mg393   2.290       .  S
O392       Mg424   2.262       .  S
Mg393       O399   2.023       .  S
Mg393       O407   2.073       .  S
Mg393       O395   2.201       .  S
C394        O432   1.281       .  A
C394        O976   1.271   1_554  A
C394       C1114   1.474   1_544  S
O395        C402   1.253       .  A
H396        C409   1.081       .  S
C397        O411   1.238       .  S
C397        O412   1.276       .  A
C397        H422   1.081       .  S
O398        C421   1.276       .  A
O399       Mg413   2.097       .  S
O400        C970   1.271       .  A
O400      Mg1006   2.287       .  S
C401        O414   1.280       .  A
C401        O406   1.285       .  A
C401        C476   1.477       .  S
C402       O1005   1.281       .  A
Mg403       O410   2.202       .  S
Mg403       O411   2.137       .  S
Mg403       O404   2.360       .  S
Mg403       O405   2.295       .  S
Mg403       O432   2.311       .  S
O405        C409   1.269       .  A
O406       Mg989   2.353       .  S
O407        C426   1.242       .  A
O408        C428   1.278       .  A
O408       Mg424   2.325       .  S
O410       Mg424   2.148       .  S
O410        C421   1.237       .  S
O411       Mg430   2.193       .  S
O412       Mg424   2.330       .  S
Mg413       O982   2.353   1_554  S
Mg413      O1005   2.326       .  S
O414      Mg1006   2.278       .  S
H415        C420   1.081       .  S
O416       Mg424   2.140       .  S
O416        C419   1.243       .  S
H417        C419   1.081       .  S
H418        C421   1.081       .  S
O423       Mg430   2.250       .  S
C426        O431   1.288       .  A
O427        C428   1.276       .  A
C428        C449   1.477       .  S
O429        C978   1.281       .  A
O429       Mg989   2.326       .  S
Mg430       O976   2.287   1_554  S
Mg430       O990   2.278   1_554  S
O433       Mg435   2.087       .  S
O433       Mg441   2.129       .  S
O433        C468   1.244       .  S
C434        O447   1.233       .  S
C434        O471   1.261       .  A
C434        H473   1.081       .  S
Mg435       O479   2.421       .  S
Mg435       O475   2.278       .  S
Mg435       O446   2.347       .  S
Mg435       O464   2.248       .  S
O436       Mg478   2.142       .  S
O436       Mg461   2.118       .  S
O436        C457   1.235       .  S
O437        C468   1.274       .  A
O437       Mg461   2.287       .  S
C438        O440   1.267       .  A
C438        O452   1.281       .  A
C438        C534   1.478   1_545  S
O439        C467   1.273       .  A
O439       Mg441   2.290       .  S
O440       Mg472   2.251       .  S
Mg441       O447   2.021       .  S
Mg441       O455   2.074       .  S
Mg441       O443   2.203       .  S
C442        O480   1.281       .  A
C442        O448   1.271       .  A
C442        C490   1.474   1_545  S
O443        C450   1.254       .  A
H444        C457   1.081       .  S
C445        O459   1.238       .  S
C445        O460   1.276       .  A
C445        H470   1.081       .  S
O446        C469   1.277       .  A
O447       Mg461   2.092       .  S
O448       Mg478   2.287       .  S
C449        O462   1.280       .  A
C449        O454   1.286       .  A
C450        O477   1.282       .  A
Mg451       O458   2.203       .  S
Mg451       O459   2.136       .  S
Mg451       O452   2.362       .  S
Mg451       O453   2.296       .  S
Mg451       O480   2.312       .  S
O453        C457   1.269       .  A
O454       Mg461   2.355       .  S
O455        C474   1.243       .  A
O456        C476   1.280       .  A
O456       Mg472   2.331       .  S
O458       Mg472   2.153       .  S
O458        C469   1.237       .  S
O459       Mg478   2.196       .  S
O460       Mg472   2.331       .  S
Mg461       O477   2.326       .  S
O462       Mg478   2.279       .  S
H463        C468   1.081       .  S
O464        C467   1.272       .  A
O464       Mg472   2.213       .  S
H465        C467   1.081       .  S
H466        C469   1.081       .  S
O471       Mg478   2.250       .  S
C474        O479   1.288       .  A
O475        C476   1.278       .  A
O481       Mg483   2.094       .  S
O481       Mg489   2.109       .  S
O481        C516   1.246       .  S
C482        O519   1.260       .  A
C482        H521   1.081       .  S
C482        O495   1.260       .  A
Mg483       O512   2.163       .  S
Mg483       O527   2.435       .  S
Mg483       O523   2.288       .  S
Mg483       O494   2.349       .  S
O484       Mg526   2.153       .  S
O484       Mg509   2.105       .  S
O484        C505   1.235       .  S
O485        C516   1.278       .  A
O485       Mg509   2.305       .  S
C486        O488   1.269       .  A
C486        O500   1.280       .  A
O487        C515   1.274       .  A
O487       Mg489   2.302       .  S
O488       Mg520   2.270       .  S
Mg489       O503   2.069       .  S
Mg489       O491   2.258       .  S
Mg489       O495   2.100       .  S
C490        O528   1.282       .  A
C490        O496   1.271       .  A
O491        C498   1.257       .  A
H492        C505   1.081       .  S
C493        O507   1.238       .  S
C493        O508   1.275       .  A
C493        H518   1.081       .  S
O494        C517   1.278       .  A
O495       Mg509   2.145       .  S
O496       Mg526   2.282       .  S
C497        O510   1.280       .  A
C497        O502   1.284       .  A
C497        C572   1.478       .  S
C498        O525   1.279       .  A
Mg499       O506   2.206       .  S
Mg499       O507   2.145       .  S
Mg499       O500   2.353       .  S
Mg499       O501   2.289       .  S
Mg499       O528   2.316       .  S
O501        C505   1.268       .  A
O502       Mg509   2.352       .  S
O503        C522   1.244       .  A
O504        C524   1.276       .  A
O504       Mg520   2.315       .  S
O506       Mg520   2.148       .  S
O506        C517   1.238       .  S
O507       Mg526   2.190       .  S
O508       Mg520   2.324       .  S
Mg509       O525   2.278       .  S
O510       Mg526   2.280       .  S
H511        C516   1.081       .  S
O512       Mg520   2.149       .  S
O512        C515   1.241       .  S
H513        C515   1.081       .  S
H514        C517   1.081       .  S
O519       Mg526   2.267       .  S
C522        O527   1.292       .  A
O523        C524   1.277       .  A
C524        C545   1.478       .  S
O529       Mg531   2.095       .  S
O529       Mg537   2.110       .  S
O529        C564   1.246       .  S
C530        O567   1.260       .  A
C530        H569   1.081       .  S
C530        O543   1.260       .  A
Mg531       O560   2.163       .  S
Mg531       O575   2.434       .  S
Mg531       O571   2.288       .  S
Mg531       O542   2.349       .  S
O532       Mg574   2.153       .  S
O532       Mg557   2.105       .  S
O532        C553   1.235       .  S
O533        C564   1.278       .  A
O533       Mg557   2.306       .  S
C534        O536   1.268       .  A
C534        O548   1.280       .  A
O535        C563   1.274       .  A
O535       Mg537   2.302       .  S
O536       Mg568   2.266       .  S
Mg537       O551   2.069       .  S
Mg537       O539   2.257       .  S
Mg537       O543   2.101       .  S
C538        O576   1.282       .  A
C538        O544   1.271       .  A
C538        C970   1.474   1_565  S
O539        C546   1.257       .  A
H540        C553   1.081       .  S
C541        O555   1.238       .  S
C541        O556   1.275       .  A
C541        H566   1.081       .  S
O542        C565   1.278       .  A
O543       Mg557   2.145       .  S
O544       Mg574   2.281       .  S
C545        O558   1.280       .  A
C545        O550   1.284       .  A
C546       O1149   1.279       .  A
Mg547       O554   2.205       .  S
Mg547       O555   2.144       .  S
Mg547       O548   2.348       .  S
Mg547       O549   2.288       .  S
Mg547       O576   2.316       .  S
O549        C553   1.268       .  A
O550      Mg1133   2.353   1_554  S
O551        C570   1.244       .  A
O552        C572   1.276       .  A
O552       Mg568   2.314       .  S
O554       Mg568   2.148       .  S
O554        C565   1.238       .  S
O555       Mg574   2.189       .  S
O556       Mg568   2.325       .  S
Mg557      O1126   2.353       .  S
Mg557      O1149   2.278       .  S
O558      Mg1150   2.279   1_554  S
H559        C564   1.081       .  S
O560       Mg568   2.148       .  S
O560        C563   1.241       .  S
H561        C563   1.081       .  S
H562        C565   1.081       .  S
O567       Mg574   2.267       .  S
C570        O575   1.292       .  A
O571        C572   1.277       .  A
O573       C1122   1.279       .  A
O573      Mg1133   2.278       .  S
Mg574      O1134   2.279       .  S
O577       Mg579   2.084       .  S
O577       Mg585   2.135       .  S
O577        C612   1.243       .  S
C578        O591   1.232       .  S
C578        O615   1.261       .  A
C578        H617   1.081       .  S
Mg579       O608   2.174       .  S
Mg579       O623   2.374       .  S
Mg579       O619   2.285       .  S
Mg579       O590   2.331       .  S
O580       Mg622   2.147       .  S
O580       Mg605   2.123       .  S
O580        C601   1.235       .  S
O581        C612   1.273       .  A
O581       Mg605   2.288       .  S
C582        O584   1.268       .  A
C582        O596   1.281       .  A
C582        C682   1.478       .  S
O583        C611   1.275       .  A
O583       Mg585   2.295       .  S
O584       Mg616   2.252       .  S
Mg585       O591   2.036       .  S
Mg585       O599   2.112       .  S
Mg585       O587   2.191       .  S
C586        O624   1.280       .  A
C586        O592   1.276       .  A
C586        C726   1.476       .  S
O587        C594   1.252       .  A
H588        C601   1.081       .  S
C589        O603   1.238       .  S
C589        O604   1.275       .  A
C589        H614   1.081       .  S
O590        C613   1.273       .  A
O591       Mg605   2.107       .  S
O592       Mg622   2.299       .  S
C593        O606   1.282       .  A
C593        O598   1.285       .  A
C593        C668   1.479       .  S
C594        O621   1.281       .  A
C594       C1026   1.463       .  S
Mg595       O602   2.187       .  S
Mg595       O603   2.154       .  S
Mg595       O596   2.346       .  S
Mg595       O597   2.287       .  S
Mg595       O624   2.306       .  S
O597        C601   1.268       .  A
O598       Mg605   2.351       .  S
O599        C618   1.245       .  A
O600        C620   1.276       .  A
O600       Mg616   2.318       .  S
O602       Mg616   2.153       .  S
O602        C613   1.235       .  S
O603       Mg622   2.188       .  S
O604       Mg616   2.322       .  S
Mg605       O621   2.332       .  S
O606       Mg622   2.292       .  S
H607        C612   1.081       .  S
O608       Mg616   2.141       .  S
O608        C611   1.243       .  S
H609        C611   1.081       .  S
H610        C613   1.081       .  S
O615       Mg622   2.254       .  S
C618        O623   1.287       .  A
C618        C906   1.453       .  S
O619        C620   1.276       .  A
C620        C641   1.479       .  S
O625       Mg627   2.084       .  S
O625       Mg633   2.135       .  S
O625        C660   1.243       .  S
C626        O639   1.232       .  S
C626        O663   1.261       .  A
C626        H665   1.081       .  S
Mg627       O656   2.174       .  S
Mg627       O671   2.374       .  S
Mg627       O667   2.285       .  S
Mg627       O638   2.331       .  S
O628       Mg670   2.147       .  S
O628       Mg653   2.123       .  S
O628        C649   1.235       .  S
O629        C660   1.273       .  A
C630        O632   1.268       .  A
C630        O644   1.281       .  A
C630        C730   1.478       .  S
O631        C659   1.275       .  A
O631       Mg633   2.295       .  S
O632       Mg664   2.252       .  S
Mg633       O647   2.112       .  S
C634        O672   1.280       .  A
C634        O640   1.276       .  A
C634        C678   1.476       .  S
O635        C642   1.252       .  A
H636        C649   1.081       .  S
C637        O651   1.238       .  S
C637        O652   1.275       .  A
C637        H662   1.081   1_556  S
O638        C661   1.273       .  A
O639       Mg653   2.107       .  S
O640       Mg670   2.299       .  S
C641        O654   1.282       .  A
C641        O646   1.285       .  A
C642        O669   1.281       .  A
C642        C978   1.463       .  S
Mg643       O650   2.187       .  S
Mg643       O651   2.154       .  S
Mg643       O644   2.346       .  S
Mg643       O645   2.287       .  S
O646       Mg653   2.351       .  S
O647        C666   1.245       .  A
O648        C668   1.276       .  A
O648       Mg664   2.318       .  S
O650       Mg664   2.153       .  S
O650        C661   1.235       .  S
O652       Mg664   2.322       .  S
Mg653       O669   2.332       .  S
O654       Mg670   2.292       .  S
H655        C660   1.081       .  S
O656       Mg664   2.141       .  S
O656        C659   1.243       .  S
H657        C659   1.081       .  S
H658        C661   1.081       .  S
O663       Mg670   2.254       .  S
C666        O671   1.287       .  A
C666        C954   1.453       .  S
O667        C668   1.276       .  A
O673       Mg675   2.113       .  S
O673       Mg681   2.071       .  S
O673        C708   1.244       .  S
C674        O711   1.263       .  A
C674        H713   1.081       .  S
C674        O687   1.260       .  A
Mg675       O704   2.138       .  S
Mg675       O719   2.427       .  S
Mg675       O715   2.273       .  S
Mg675       O686   2.341       .  S
O676       Mg718   2.160       .  S
O676       Mg701   2.111       .  S
O676        C697   1.235       .  S
O677        C708   1.278       .  A
O677       Mg701   2.323       .  S
C678        O680   1.270       .  A
C678        O692   1.280       .  A
O679        C707   1.277       .  A
O679       Mg681   2.332       .  S
O680       Mg712   2.258       .  S
Mg681       O695   2.118       .  S
Mg681       O683   2.227       .  S
Mg681       O687   2.136       .  S
C682        O720   1.282       .  A
C682        O688   1.274       .  A
O683        C690   1.250       .  A
H684        C697   1.081       .  S
C685        O699   1.236       .  S
C685        O700   1.272       .  A
C685        H710   1.081       .  S
O686        C709   1.278       .  A
O687       Mg701   2.158       .  S
O688       Mg718   2.291       .  S
C689        O702   1.278       .  A
C689        O694   1.285       .  A
C689        C764   1.476       .  S
C690        O717   1.280       .  A
C690       C1098   1.459       .  S
Mg691       O698   2.201       .  S
Mg691       O699   2.155       .  S
Mg691       O692   2.339       .  S
Mg691       O693   2.281       .  S
Mg691       O720   2.320       .  S
O693        C697   1.268       .  A
O694       Mg701   2.357       .  S
O695        C714   1.241       .  A
O696       Mg712   2.322       .  S
O698       Mg712   2.155       .  S
O698        C709   1.239       .  S
O699       Mg718   2.173       .  S
O700       Mg712   2.312       .  S
Mg701       O717   2.300       .  S
O702       Mg718   2.271       .  S
H703        C708   1.081       .  S
O704       Mg712   2.139       .  S
O704        C707   1.241       .  S
H705        C707   1.081       .  S
H706        C709   1.081       .  S
O711       Mg718   2.285       .  S
C714        O719   1.284       .  A
C714        C786   1.458       .  S
C716        C737   1.476       .  S
O721       Mg723   2.112       .  S
O721       Mg729   2.070       .  S
O721        C756   1.244       .  S
C722        O759   1.263       .  A
C722        H761   1.081       .  S
C722        O735   1.260       .  A
Mg723       O752   2.138       .  S
Mg723       O767   2.427       .  S
Mg723       O763   2.273       .  S
Mg723       O734   2.341       .  S
O724       Mg766   2.160       .  S
O724       Mg749   2.111       .  S
O724        C745   1.235       .  S
O725        C756   1.278       .  A
O725       Mg749   2.323       .  S
C726        O728   1.270       .  A
C726        O740   1.280       .  A
O727        C755   1.277       .  A
O727       Mg729   2.332       .  S
O728       Mg760   2.259       .  S
Mg729       O743   2.118       .  S
Mg729       O731   2.227       .  S
Mg729       O735   2.137       .  S
C730        O768   1.282       .  A
C730        O736   1.274       .  A
O731        C738   1.250       .  A
H732        C745   1.081       .  S
C733        O747   1.236       .  S
C733        O748   1.272       .  A
C733        H758   1.081       .  S
O734        C757   1.278       .  A
O735       Mg749   2.158       .  S
O736       Mg766   2.290       .  S
C737        O750   1.278       .  A
C737        O742   1.285       .  A
C738        O765   1.280       .  A
C738       C1146   1.459       .  S
Mg739       O746   2.201       .  S
Mg739       O747   2.155       .  S
Mg739       O740   2.339       .  S
Mg739       O741   2.281       .  S
Mg739       O768   2.320       .  S
O741        C745   1.268       .  A
O742       Mg749   2.357       .  S
O743        C762   1.241       .  A
O744        C764   1.277       .  A
O744       Mg760   2.322       .  S
O746       Mg760   2.155       .  S
O746        C757   1.239       .  S
O747       Mg766   2.173       .  S
O748       Mg760   2.312       .  S
Mg749       O765   2.300       .  S
O750       Mg766   2.271       .  S
H751        C756   1.081       .  S
O752       Mg760   2.139       .  S
O752        C755   1.241       .  S
H753        C755   1.081       .  S
H754        C757   1.081       .  S
O759       Mg766   2.285       .  S
C762        O767   1.284       .  A
C762        C834   1.458       .  S
O763        C764   1.274       .  A
O769       Mg777   2.117       .  S
O769        C804   1.246       .  S
C770        O807   1.259       .  A
C770        H809   1.081       .  S
C770        O783   1.259       .  A
Mg771       O800   2.171       .  S
Mg771       O815   2.442       .  S
Mg771       O811   2.278       .  S
Mg771       O782   2.348       .  S
O772       Mg814   2.157       .  S
O772       Mg797   2.113       .  S
O772        C793   1.236       .  S
O773        C804   1.277       .  A
O773       Mg797   2.299       .  S
C774        O776   1.269       .  A
C774        O788   1.281       .  A
C774        C918   1.481   1_455  S
O775       Mg777   2.287       .  S
O776       Mg808   2.268       .  S
Mg777       O779   2.205       .  S
Mg777       O783   2.087       .  S
C778        O816   1.281       .  A
C778        O784   1.270       .  A
C778        C874   1.472   1_455  S
O779        C786   1.252       .  A
H780        C793   1.081       .  S
C781        O795   1.238       .  S
C781        O796   1.276       .  A
C781        H806   1.081       .  S
O782        C805   1.277       .  A
O783       Mg797   2.164       .  S
O784       Mg814   2.279       .  S
C785        O798   1.279       .  A
C785        O790   1.285       .  A
C785        C860   1.476       .  S
C786        O813   1.279       .  A
Mg787       O795   2.139       .  S
Mg787       O789   2.295       .  S
Mg787       O816   2.309       .  S
O789        C793   1.270       .  A
O790       Mg797   2.356       .  S
O791        C810   1.243   1_554  A
O792        C812   1.278       .  A
O792       Mg808   2.321       .  S
O794       Mg808   2.146       .  S
O794        C805   1.238       .  S
O795       Mg814   2.197       .  S
Mg797       O813   2.316       .  S
O798       Mg814   2.272       .  S
H799        C804   1.081       .  S
O800       Mg808   2.140       .  S
O800        C803   1.240       .  S
H801        C803   1.081       .  S
H802        C805   1.081       .  S
O807       Mg814   2.263       .  S
C810        O815   1.291       .  A
C810       C1122   1.463       .  S
O811        C812   1.277       .  A
C812        C833   1.476       .  S
O817       Mg819   2.090       .  S
O817       Mg825   2.117       .  S
O817        C852   1.246       .  S
C818        O855   1.259       .  A
C818        H857   1.081       .  S
C818        O831   1.259       .  A
Mg819       O848   2.171       .  S
Mg819       O863   2.443       .  S
Mg819       O859   2.278       .  S
Mg819       O830   2.348       .  S
O820       Mg862   2.157       .  S
O820       Mg845   2.113       .  S
O820        C841   1.236       .  S
O821        C852   1.277       .  A
O821       Mg845   2.299       .  S
C822        O824   1.269       .  A
C822        O836   1.281       .  A
C822        C870   1.481   1_455  S
O823        C851   1.272       .  A
O823       Mg825   2.287       .  S
O824       Mg856   2.268       .  S
Mg825       O839   2.066       .  S
Mg825       O827   2.205       .  S
Mg825       O831   2.087       .  S
C826        O864   1.281       .  A
C826        O832   1.270       .  A
C826        C922   1.472   1_455  S
O827        C834   1.252       .  A
H828        C841   1.081       .  S
C829        O843   1.238       .  S
C829        O844   1.276       .  A
C829        H854   1.081       .  S
O830        C853   1.277       .  A
O831       Mg845   2.164       .  S
O832       Mg862   2.279       .  S
C833        O846   1.279       .  A
C833        O838   1.285       .  A
C834        O861   1.279       .  A
Mg835       O842   2.203       .  S
Mg835       O843   2.139       .  S
Mg835       O836   2.359       .  S
Mg835       O837   2.295       .  S
Mg835       O864   2.310       .  S
O837        C841   1.270       .  A
O838       Mg845   2.356       .  S
O839        C858   1.243       .  A
O840        C860   1.278       .  A
O840       Mg856   2.321       .  S
O842       Mg856   2.145       .  S
O842        C853   1.238       .  S
O843       Mg862   2.197       .  S
O844       Mg856   2.331       .  S
Mg845       O861   2.316       .  S
O846       Mg862   2.273       .  S
H847        C852   1.081       .  S
O848       Mg856   2.140       .  S
O848        C851   1.240       .  S
H849        C851   1.081       .  S
H850        C853   1.081       .  S
O855       Mg862   2.263       .  S
C858        O863   1.291       .  A
C858       C1074   1.463       .  S
O859        C860   1.277       .  A
O865       Mg867   2.090       .  S
O865       Mg873   2.120       .  S
O865        C900   1.244       .  S
C866        O903   1.261       .  A
C866        H905   1.081       .  S
C866        O879   1.260       .  A
Mg867       O896   2.160       .  S
Mg867       O911   2.391       .  S
Mg867       O907   2.277       .  S
Mg867       O878   2.341       .  S
O868       Mg910   2.153       .  S
O868       Mg893   2.108       .  S
O868        C889   1.235       .  S
O869        C900   1.276       .  A
O869       Mg893   2.303       .  S
C870        O872   1.271       .  A
C870        O884   1.281       .  A
O871        C899   1.275       .  A
O871       Mg873   2.308       .  S
O872       Mg904   2.275       .  S
Mg873       O887   2.106       .  S
Mg873       O875   2.246       .  S
Mg873       O879   2.118       .  S
C874        O912   1.281       .  A
C874        O880   1.270       .  A
O875        C882   1.256       .  A
H876        C889   1.081       .  S
C877        O891   1.237       .  S
C877        O892   1.274       .  A
C877        H902   1.081       .  S
O878        C901   1.277       .  A
O879       Mg893   2.160       .  S
O880       Mg910   2.276       .  S
C881        O894   1.277       .  A
C881        O886   1.283       .  A
C881        C956   1.476       .  S
C882        O909   1.279       .  A
C882       C1002   1.462       .  S
Mg883       O890   2.198       .  S
Mg883       O891   2.146       .  S
Mg883       O884   2.352       .  S
Mg883       O885   2.289       .  S
Mg883       O912   2.311       .  S
O885        C889   1.268       .  A
O886       Mg893   2.350       .  S
O887        C906   1.247       .  A
O888        C908   1.277       .  A
O888       Mg904   2.317       .  S
O890       Mg904   2.149       .  S
O890        C901   1.238       .  S
O891       Mg910   2.182       .  S
O892       Mg904   2.319       .  S
Mg893       O909   2.283       .  S
O894       Mg910   2.269       .  S
H895        C900   1.081       .  S
O896       Mg904   2.152       .  S
O896        C899   1.241       .  S
H897        C899   1.081       .  S
H898        C901   1.081       .  S
O903       Mg910   2.272       .  S
C906        O911   1.289       .  A
O907        C908   1.274       .  A
C908        C929   1.476       .  S
O913       Mg915   2.089       .  S
O913       Mg921   2.121       .  S
O913        C948   1.244       .  S
C914        O951   1.261       .  A
C914        H953   1.081       .  S
C914        O927   1.260       .  A
Mg915       O944   2.160       .  S
Mg915       O959   2.391       .  S
Mg915       O955   2.277       .  S
Mg915       O926   2.341       .  S
O916       Mg958   2.153       .  S
O916       Mg941   2.108       .  S
O916        C937   1.235       .  S
O917        C948   1.276       .  A
O917       Mg941   2.302       .  S
C918        O920   1.270       .  A
C918        O932   1.281       .  A
O919        C947   1.275       .  A
O919       Mg921   2.306       .  S
O920       Mg952   2.274       .  S
Mg921       O935   2.105       .  S
Mg921       O923   2.242       .  S
Mg921       O927   2.118       .  S
C922        O960   1.281       .  A
C922        O928   1.270       .  A
O923        C930   1.255       .  A
H924        C937   1.081       .  S
C925        O939   1.237       .  S
C925        O940   1.274       .  A
C925        H950   1.081       .  S
O926        C949   1.277       .  A
O927       Mg941   2.160       .  S
O928       Mg958   2.276       .  S
C929        O942   1.277       .  A
C929        O934   1.283       .  A
C930        O957   1.279       .  A
C930       C1050   1.461       .  S
Mg931       O938   2.198       .  S
Mg931       O939   2.146       .  S
Mg931       O932   2.352       .  S
Mg931       O933   2.289       .  S
Mg931       O960   2.311       .  S
O933        C937   1.268       .  A
O934       Mg941   2.350       .  S
O935        C954   1.246       .  A
O936       Mg952   2.317       .  S
O938       Mg952   2.149       .  S
O938        C949   1.238       .  S
O939       Mg958   2.182       .  S
O940       Mg952   2.319       .  S
Mg941       O957   2.283       .  S
O942       Mg958   2.270       .  S
H943        C948   1.081       .  S
O944       Mg952   2.152       .  S
O944        C947   1.241       .  S
H945        C947   1.081       .  S
H946        C949   1.081       .  S
O951       Mg958   2.272       .  S
C954        O959   1.289       .  A
O961       Mg963   2.089       .  S
O961       Mg969   2.120       .  S
O961        C996   1.244       .  S
C962        O975   1.233       .  S
C962        O999   1.261       .  A
C962       H1001   1.081       .  S
Mg963       O992   2.172       .  S
Mg963      O1007   2.425       .  S
Mg963      O1003   2.276       .  S
Mg963       O974   2.346       .  S
O964      Mg1006   2.142       .  S
O964       Mg989   2.116       .  S
O964        C985   1.235       .  S
O965        C996   1.274       .  A
O965       Mg989   2.289       .  S
C966        O968   1.269       .  A
C966        O980   1.281       .  A
C966       C1062   1.480   1_545  S
O967        C995   1.274       .  A
O967       Mg969   2.290       .  S
O968      Mg1000   2.262       .  S
Mg969       O975   2.023       .  S
Mg969       O983   2.073       .  S
Mg969       O971   2.201       .  S
C970       O1008   1.281       .  A
O971        C978   1.253       .  A
H972        C985   1.081       .  S
C973        O987   1.238       .  S
C973        O988   1.276       .  A
C973        H998   1.081       .  S
O974        C997   1.276       .  A
O975       Mg989   2.097       .  S
C977        O990   1.280       .  A
C977        O982   1.285       .  A
C977       C1052   1.477       .  S
Mg979       O986   2.202       .  S
Mg979       O987   2.137       .  S
Mg979       O980   2.360       .  S
Mg979       O981   2.295       .  S
Mg979      O1008   2.311       .  S
O981        C985   1.269       .  A
O983       C1002   1.242       .  A
O984       C1004   1.278       .  A
O984      Mg1000   2.325       .  S
O986      Mg1000   2.148       .  S
O986        C997   1.237       .  S
O987      Mg1006   2.193       .  S
O988      Mg1000   2.330       .  S
H991        C996   1.081       .  S
O992      Mg1000   2.140       .  S
O992        C995   1.243       .  S
H993        C995   1.081       .  S
H994        C997   1.081       .  S
O999      Mg1006   2.250       .  S
C1002      O1007   1.288       .  A
O1003      C1004   1.276       .  A
C1004      C1025   1.477       .  S
O1009     Mg1011   2.087       .  S
O1009     Mg1017   2.129       .  S
O1009      C1044   1.244       .  S
C1010      O1023   1.233       .  S
C1010      O1047   1.261       .  A
C1010      H1049   1.081       .  S
Mg1011     O1055   2.421       .  S
Mg1011     O1051   2.278       .  S
Mg1011     O1022   2.347       .  S
Mg1011     O1040   2.248       .  S
O1012     Mg1054   2.142       .  S
O1012     Mg1037   2.118       .  S
O1012      C1033   1.235       .  S
O1013      C1044   1.274       .  A
O1013     Mg1037   2.287       .  S
C1014      O1016   1.267       .  A
C1014      O1028   1.281       .  A
C1014      C1110   1.478   1_545  S
O1015      C1043   1.273       .  A
O1015     Mg1017   2.290       .  S
O1016     Mg1048   2.251       .  S
Mg1017     O1023   2.021       .  S
Mg1017     O1031   2.074       .  S
Mg1017     O1019   2.203       .  S
C1018      O1056   1.281       .  A
C1018      O1024   1.271       .  A
C1018      C1066   1.474   1_545  S
O1019      C1026   1.254       .  A
H1020      C1033   1.081       .  S
C1021      O1035   1.238       .  S
C1021      O1036   1.276       .  A
C1021      H1046   1.081       .  S
O1022      C1045   1.277       .  A
O1023     Mg1037   2.092       .  S
O1024     Mg1054   2.287       .  S
C1025      O1038   1.280       .  A
C1025      O1030   1.286       .  A
C1026      O1053   1.282       .  A
Mg1027     O1034   2.203       .  S
Mg1027     O1035   2.136       .  S
Mg1027     O1028   2.362       .  S
Mg1027     O1029   2.296       .  S
Mg1027     O1056   2.312       .  S
O1029      C1033   1.269       .  A
O1030     Mg1037   2.355       .  S
O1031      C1050   1.243       .  A
O1032      C1052   1.280       .  A
O1032     Mg1048   2.331       .  S
O1034     Mg1048   2.153       .  S
O1034      C1045   1.237       .  S
O1035     Mg1054   2.196       .  S
O1036     Mg1048   2.331       .  S
Mg1037     O1053   2.326       .  S
O1038     Mg1054   2.279       .  S
H1039      C1044   1.081       .  S
O1040      C1043   1.272       .  A
O1040     Mg1048   2.213       .  S
H1041      C1043   1.081       .  S
H1042      C1045   1.081       .  S
O1047     Mg1054   2.250       .  S
C1050      O1055   1.288       .  A
O1051      C1052   1.278       .  A
O1057     Mg1059   2.094       .  S
O1057     Mg1065   2.109       .  S
O1057      C1092   1.246       .  S
C1058      O1095   1.260       .  A
C1058      H1097   1.081       .  S
C1058      O1071   1.260       .  A
Mg1059     O1088   2.163       .  S
Mg1059     O1103   2.435       .  S
Mg1059     O1099   2.288       .  S
Mg1059     O1070   2.349       .  S
O1060     Mg1102   2.153       .  S
O1060     Mg1085   2.105       .  S
O1060      C1081   1.235       .  S
O1061      C1092   1.278       .  A
O1061     Mg1085   2.305       .  S
C1062      O1064   1.269       .  A
C1062      O1076   1.280       .  A
O1063      C1091   1.274       .  A
O1063     Mg1065   2.302       .  S
O1064     Mg1096   2.270       .  S
Mg1065     O1079   2.069       .  S
Mg1065     O1067   2.258       .  S
Mg1065     O1071   2.100       .  S
C1066      O1104   1.282       .  A
C1066      O1072   1.271       .  A
O1067      C1074   1.257       .  A
H1068      C1081   1.081       .  S
C1069      O1083   1.238       .  S
C1069      O1084   1.275       .  A
C1069      H1094   1.081       .  S
O1070      C1093   1.278       .  A
O1071     Mg1085   2.145       .  S
O1072     Mg1102   2.282       .  S
C1073      O1086   1.280       .  A
C1073      O1078   1.284       .  A
C1073      C1148   1.478       .  S
C1074      O1101   1.279       .  A
Mg1075     O1082   2.206       .  S
Mg1075     O1083   2.145       .  S
Mg1075     O1076   2.353       .  S
Mg1075     O1077   2.289       .  S
Mg1075     O1104   2.316       .  S
O1077      C1081   1.268       .  A
O1078     Mg1085   2.352       .  S
O1079      C1098   1.244       .  A
O1080      C1100   1.276       .  A
O1080     Mg1096   2.315       .  S
O1082     Mg1096   2.148       .  S
O1082      C1093   1.238       .  S
O1083     Mg1102   2.190       .  S
O1084     Mg1096   2.324       .  S
Mg1085     O1101   2.278       .  S
O1086     Mg1102   2.280       .  S
H1087      C1092   1.081       .  S
O1088     Mg1096   2.149       .  S
O1088      C1091   1.241       .  S
H1089      C1091   1.081       .  S
H1090      C1093   1.081       .  S
O1095     Mg1102   2.267       .  S
C1098      O1103   1.292       .  A
O1099      C1100   1.277       .  A
C1100      C1121   1.478       .  S
O1105     Mg1107   2.095       .  S
O1105     Mg1113   2.110       .  S
O1105      C1140   1.246       .  S
C1106      O1143   1.260       .  A
C1106      H1145   1.081       .  S
C1106      O1119   1.260       .  A
Mg1107     O1136   2.163       .  S
Mg1107     O1151   2.434       .  S
Mg1107     O1147   2.288       .  S
Mg1107     O1118   2.349       .  S
O1108     Mg1150   2.153       .  S
O1108     Mg1133   2.105       .  S
O1108      C1129   1.235       .  S
O1109      C1140   1.278       .  A
O1109     Mg1133   2.306       .  S
C1110      O1112   1.268       .  A
C1110      O1124   1.280       .  A
O1111      C1139   1.274       .  A
O1111     Mg1113   2.302       .  S
O1112     Mg1144   2.266       .  S
Mg1113     O1127   2.069       .  S
Mg1113     O1115   2.257       .  S
Mg1113     O1119   2.101       .  S
C1114      O1152   1.282       .  A
C1114      O1120   1.271   1_556  A
O1115      C1122   1.257       .  A
H1116      C1129   1.081       .  S
C1117      O1131   1.238       .  S
C1117      O1132   1.275       .  A
C1117      H1142   1.081       .  S
O1118      C1141   1.278       .  A
O1119     Mg1133   2.145       .  S
O1120     Mg1150   2.281   1_554  S
C1121      O1134   1.280       .  A
C1121      O1126   1.284       .  A
Mg1123     O1130   2.205       .  S
Mg1123     O1131   2.144       .  S
Mg1123     O1124   2.348       .  S
Mg1123     O1125   2.288       .  S
Mg1123     O1152   2.316       .  S
O1125      C1129   1.268       .  A
O1127      C1146   1.244       .  A
O1128      C1148   1.276       .  A
O1128     Mg1144   2.314       .  S
O1130     Mg1144   2.148       .  S
O1130      C1141   1.238       .  S
O1131     Mg1150   2.189       .  S
O1132     Mg1144   2.325       .  S
H1135      C1140   1.081       .  S
O1136     Mg1144   2.148       .  S
O1136      C1139   1.241       .  S
H1137      C1139   1.081       .  S
H1138      C1141   1.081       .  S
O1143     Mg1150   2.267       .  S
C1146      O1151   1.292       .  A
O1147      C1148   1.277       .  A
