geometry optimzed in LAMMPS
_audit_creation_date              2020-12-01 
_audit_creation_method            'lammps2cif' 
_symmetry_space_group_name_H-M    'P1' 
_symmetry_Int_Tables_number       1 
_symmetry_cell_setting            triclinic 
loop_ 
_symmetry_equiv_pos_as_xyz 
  x,y,z 
_cell_length_a                    38.1664119 
_cell_length_b                    34.56415436623011 
_cell_length_c                    39.86972035703943 
_cell_angle_alpha                 90.04424121680078 
_cell_angle_beta                  90.42445374970634 
_cell_angle_gamma                 89.9336778472122 
loop_ 
_atom_site_label 
_atom_site_type_symbol 
_atom_site_fract_x 
_atom_site_fract_y 
_atom_site_fract_z 
_atom_site_charge 
O1          O  0.02690388  0.01553481  0.41996216    -0.78300
C2          C  0.03866179  0.09351865  0.50463331     0.82700
O3          O  0.08047415  0.94752490  0.51775120    -0.79400
O4          O  0.99162800  0.01815956  0.57744371    -0.80900
O5          O  0.92075488  0.99305249  0.48024418    -0.80700
O6          O  0.97773471  0.98146176  0.41691404    -0.79300
Zn7        Zn  0.04009492  0.01494236  0.46905506     1.55700
O8          O  0.93003487  0.03648467  0.52091241    -0.80700
Cd9        Cd  0.96866083  0.97075300  0.46728802     1.59700
Cd10       Cd  0.02631603  0.95001907  0.52569981     1.59600
O11         O  0.96441103  0.91193757  0.47394044    -0.80700
O12         O  0.00516098  0.99259918  0.49767098    -1.91200
Cd13       Cd  0.98456555  0.03383284  0.52764782     1.59900
O14         O  0.00070778  0.89731090  0.51629657    -0.80700
O15         O  0.01143512  0.08683569  0.52224045    -0.79300
C16         C  0.09911935  0.96462326  0.49580879     0.83200
C17         C  0.00217083  0.00040180  0.40285025     0.82900
O18         O  0.05026940  0.06850597  0.48411809    -0.78300
C19         C  0.90941752  0.01720564  0.50177060     0.83700
O20         O  0.08590681  0.98792633  0.47452941    -0.78400
C21         C  0.97714244  0.88781300  0.49486813     0.83800
C22         C  0.00575927  0.98944605  0.59241052     0.84100
O23         O  0.01989730  0.96175108  0.57624514    -0.80800
O24         O  0.42287730  0.00816201  0.47740377    -0.78300
C25         C  0.50580469  0.98913060  0.40560437     0.82700
O26         O  0.49006818  0.90178599  0.52216462    -0.79400
O27         O  0.58653783  0.98398819  0.48180143    -0.80900
O28         O  0.51674111  0.09073212  0.51998703    -0.80700
O29         O  0.43221220  0.04832873  0.52036324    -0.79300
Zn30       Zn  0.46644673  0.97743893  0.47092135     1.55700
O31         O  0.55366680  0.06998913  0.48078395    -0.80700
Cd32       Cd  0.48622255  0.04065019  0.52866635     1.59700
Cd33       Cd  0.52020283  0.95207677  0.52947638     1.59600
O34         O  0.49173593  0.02687638  0.57944542    -0.80700
O35         O  0.50307217  0.99588834  0.50032257    -1.91200
Cd36       Cd  0.54146627  0.01348738  0.47086932     1.59900
O37         O  0.51349669  0.96699871  0.57905192    -0.80700
O38         O  0.53114462  0.00613761  0.42037010    -0.79300
C39         C  0.46255811  0.89769097  0.50403326     0.83200
C40         C  0.41174660  0.03246190  0.49884541     0.82900
O41         O  0.47978609  0.97614074  0.42192356    -0.78300
C42         C  0.54309279  0.09613867  0.50082413     0.83700
O43         O  0.45235544  0.92428746  0.48422878    -0.78400
C44         C  0.50248655  0.99664957  0.59482429     0.83800
C45         C  0.59587909  0.95931960  0.50375273     0.84100
O46         O  0.57419519  0.94375334  0.52389984    -0.80800
O47         O  0.16409844  0.50924144  0.48508465    -0.78300
C48         C  0.24222225  0.49072376  0.41014826     0.82700
O49         O  0.23586981  0.40350105  0.52770219    -0.79400
O50         O  0.32693723  0.48747462  0.48120625    -0.80900
O51         O  0.26000268  0.59213237  0.52505851    -0.80700
O52         O  0.17474957  0.55098665  0.52666353    -0.79300
Zn53       Zn  0.20727787  0.47824879  0.47761100     1.55700
O54         O  0.29382245  0.57224467  0.48307945    -0.80700
Cd55       Cd  0.22893188  0.54251575  0.53385610     1.59700
Cd56       Cd  0.26503468  0.45487174  0.53369392     1.59600
O57         O  0.23549364  0.52842792  0.58425217    -0.80700
O58         O  0.24497755  0.49777117  0.50512269    -1.91200
Cd59       Cd  0.28089688  0.51605194  0.47341788     1.59900
O60         O  0.25935934  0.46951319  0.58364528    -0.80700
O61         O  0.26746187  0.50911821  0.42371668    -0.79300
C62         C  0.20675672  0.39918600  0.51203361     0.83200
C63         C  0.15377457  0.53470470  0.50584462     0.82900
O64         O  0.21786753  0.47612597  0.42777259    -0.78300
C65         C  0.28511868  0.59774936  0.50448854     0.83700
O66         O  0.19454070  0.42556619  0.49305785    -0.78400
C67         C  0.24748519  0.49871900  0.59950878     0.83800
C68         C  0.33881830  0.46456008  0.50345980     0.84100
O69         O  0.31919782  0.44925173  0.52565387    -0.80800
O70         O  0.77033786  0.52316350  0.42202926    -0.78300
C71         C  0.77783322  0.60831005  0.50199166     0.82700
O72         O  0.81760365  0.46009374  0.52455296    -0.79400
O73         O  0.72961800  0.53576960  0.57798708    -0.80900
O74         O  0.66068893  0.51305289  0.47864624    -0.80700
O75         O  0.71893680  0.49344029  0.41894675    -0.79300
Zn76       Zn  0.78061043  0.52712212  0.47168385     1.55700
O77         O  0.66986033  0.55477591  0.52048302    -0.80700
Cd78       Cd  0.70760698  0.48696120  0.46917485     1.59700
Cd79       Cd  0.76253795  0.46341844  0.52940351     1.59600
O80         O  0.69814489  0.43008310  0.47901967    -0.80700
O81         O  0.74427883  0.50690235  0.49999754    -1.91200
Cd82       Cd  0.72413745  0.54990323  0.52810260     1.59900
O83         O  0.73509136  0.41125006  0.51937679    -0.80700
O84         O  0.75205188  0.60171122  0.52144453    -0.79300
C85         C  0.83791611  0.47824868  0.50455505     0.83200
C86         C  0.74505697  0.50927128  0.40485748     0.82900
O87         O  0.78920397  0.58253858  0.48208021    -0.78300
C88         C  0.64934386  0.53711948  0.50014833     0.83700
O89         O  0.82600864  0.50178078  0.48273697    -0.78400
C90         C  0.70939472  0.40448647  0.49933352     0.83800
C91         C  0.74049361  0.50641643  0.59434695     0.84100
O92         O  0.75299417  0.47664519  0.57964874    -0.80800
O93         O  0.92499212  0.99700012  0.02052444    -0.78300
C94         C  0.00968499  0.99806783  0.09257497     0.82700
O95         O  0.99069022  0.10011470  0.97917160    -0.79400
O96         O  0.08839703  0.01825111  0.01686591    -0.80900
O97         O  0.01429033  0.91075986  0.97577038    -0.80700
O98         O  0.93198228  0.95635248  0.97766651    -0.79300
Zn99       Zn  0.97043106  0.02328089  0.02952813     1.55700
O100        O  0.05781995  0.93119838  0.00896539    -0.80700
Cd101      Cd  0.98565286  0.96238591  0.96903804     1.59700
Cd102      Cd  0.02056902  0.05016700  0.96911097     1.59600
O103        O  0.99018669  0.97708006  0.91865016    -0.80700
O104        O  0.00483996  0.00560600  0.99787235    -1.91200
Cd105      Cd  0.04467237  0.98558064  0.02492453     1.59900
O106        O  0.01226728  0.03677023  0.91906984    -0.80700
O107        O  0.03487725  0.98358305  0.07596873    -0.79300
C108        C  0.96751160  0.10557343  0.00169471     0.83200
C109        C  0.91255470  0.97328732  0.99913131     0.82900
O110        O  0.98416459  0.01497619  0.07795335    -0.78300
C111        C  0.04366767  0.90528128  0.99069183     0.83700
O112        O  0.95962673  0.07912626  0.02247567    -0.78400
C113        C  0.00067949  0.00726626  0.90328858     0.83800
C114        C  0.09697994  0.04350823  0.99524771     0.84100
O115        O  0.07482002  0.05854298  0.97486063    -0.80800
O116        O  0.58472132  0.00531127  0.02350313    -0.78300
C117        C  0.50256749  0.99867898  0.09640758     0.82700
O118        O  0.50786192  0.90675925  0.97979476    -0.79400
O119        O  0.41990506  0.99788835  0.02037941    -0.80900
O120        O  0.49732084  0.09774729  0.98273617    -0.80700
O121        O  0.57838708  0.04883765  0.98264451    -0.79300
Zn122      Zn  0.53880924  0.97961299  0.03078624     1.55700
O123        O  0.45850340  0.07952344  0.02101103    -0.80700
Cd124      Cd  0.52415097  0.04522615  0.97400759     1.59700
Cd125      Cd  0.48295875  0.96044329  0.97114940     1.59600
O126        O  0.51734606  0.03301955  0.92344958    -0.80700
O127        O  0.50383800  0.00158749  0.00128810    -1.91200
Cd128      Cd  0.46711706  0.02248276  0.03095344     1.59900
O129        O  0.49131802  0.97530724  0.92124589    -0.80700
O130        O  0.47772881  0.01616452  0.08130888    -0.79300
C131        C  0.53388929  0.89917608  0.99915037     0.83200
C132        C  0.59748856  0.03028716  0.00364252     0.82900
O133        O  0.52721424  0.98252474  0.08021281    -0.78300
C134        C  0.47101129  0.10496493  0.00147151     0.83700
O135        O  0.54652293  0.92460645  0.01884810    -0.78400
C136        C  0.50437358  0.00486643  0.90677827     0.83800
C137        C  0.40798265  0.97604454  0.99732204     0.84100
O138        O  0.42813630  0.95895850  0.97650471    -0.80800
O139        O  0.26803464  0.47622428  0.08416567    -0.78300
C140        C  0.27728583  0.39218802  0.00047024     0.82700
O141        O  0.31526235  0.54500859  0.98795194    -0.79400
O142        O  0.23285572  0.47141672  0.92414503    -0.80900
O143        O  0.15975319  0.48062464  0.02449638    -0.80700
O144        O  0.21655003  0.50619877  0.08500067    -0.79300
Zn145      Zn  0.27816029  0.47150505  0.03432094     1.55700
O146        O  0.17114000  0.44679690  0.97798520    -0.80700
Cd147      Cd  0.20445625  0.51077496  0.03486410     1.59700
Cd148      Cd  0.26116852  0.53966211  0.98019623     1.59600
O149        O  0.19169872  0.56745087  0.02568157    -0.80700
O150        O  0.24278890  0.49341013  0.00533436    -1.91200
Cd151      Cd  0.22531164  0.45283406  0.97305663     1.59900
O152        O  0.23222766  0.58981639  0.99080888    -0.80700
O153        O  0.25290242  0.40046240  0.97946836    -0.79300
C154        C  0.33540162  0.52347528  0.00562822     0.83200
C155        C  0.24273791  0.49142031  0.10019956     0.82900
O156        O  0.28715313  0.41637358  0.02265648    -0.78300
C157        C  0.14990688  0.45960156  0.99998960     0.83700
O158        O  0.32328132  0.49678989  0.02414108    -0.78400
C159        C  0.20450763  0.59465926  0.00815424     0.83800
C160        C  0.24384470  0.50285662  0.91118373     0.84100
O161        O  0.25479506  0.53088503  0.92920623    -0.80800
O162        O  0.66808179  0.50613082  0.02054908    -0.78300
C163        C  0.75152971  0.50282622  0.09516375     0.82700
O164        O  0.74272124  0.59794075  0.97703889    -0.79400
O165        O  0.83251738  0.51014978  0.01795947    -0.80900
O166        O  0.75272890  0.40752196  0.98194483    -0.80700
O167        O  0.67219870  0.45794341  0.98379522    -0.79300
Zn168      Zn  0.71525228  0.52703482  0.03033819     1.55700
O169        O  0.79483544  0.42543700  0.01770799    -0.80700
Cd170      Cd  0.72604028  0.46009319  0.97425741     1.59700
Cd171      Cd  0.76714543  0.54433023  0.96880134     1.59600
O172        O  0.72961509  0.47142937  0.92351468    -0.80700
O173        O  0.74833940  0.50379601  0.00024996    -1.91200
Cd174      Cd  0.78649665  0.48269112  0.02872030     1.59900
O175        O  0.75663858  0.52837025  0.91944986    -0.80700
O176        O  0.77668905  0.48695644  0.07948888    -0.79300
C177        C  0.71996468  0.60718676  0.99900090     0.83200
C178        C  0.65387981  0.48060762  0.00197361     0.82900
O179        O  0.72657691  0.51955701  0.07950317    -0.78300
C180        C  0.78026085  0.39995807  0.99923180     0.83700
O181        O  0.70968803  0.58302983  0.02082877    -0.78400
C182        C  0.74193390  0.49899897  0.90597203     0.83800
C183        C  0.84276664  0.53298911  0.99498540     0.84100
O184        O  0.82154048  0.54828957  0.97390085    -0.80800
C185        C  0.37401760  0.52656806  0.00327046    -0.03000
C186        C  0.39037228  0.55368045  0.98227563    -0.05600
C187        C  0.42681170  0.55252465  0.97772431    -0.20700
C188        C  0.44711338  0.52367616  0.99335076     0.25000
C189        C  0.43084478  0.49739938  0.01494797    -0.18300
C190        C  0.39489064  0.49892888  0.01995067    -0.08200
C191        C  0.48554269  0.52231956  0.98895022    -0.18500
C192        C  0.50325583  0.48854812  0.98846778    -0.23300
C193        C  0.54184571  0.48645197  0.99156471     0.27100
C194        C  0.56037246  0.45612166  0.97628746    -0.20100
C195        C  0.59683388  0.45320675  0.98017133    -0.09700
C196        C  0.61510255  0.48007249  0.00015443    -0.10300
C197        C  0.59610104  0.50951949  0.01635569    -0.03200
C198        C  0.56001574  0.51277522  0.01199474    -0.18300
H199        H  0.37502263  0.57520892  0.96899085     0.10800
H200        H  0.43904621  0.57353787  0.96143576     0.10800
H201        H  0.44598302  0.47575787  0.02832134     0.10500
H202        H  0.38338596  0.47759116  0.03640384     0.11600
H203        H  0.49957405  0.54956252  0.98717214     0.11700
H204        H  0.48895199  0.46143367  0.98686177     0.13600
H205        H  0.54667050  0.43506286  0.96093791     0.10100
H206        H  0.61070578  0.43032586  0.96727966     0.12200
H207        H  0.60918367  0.53077968  0.03198111     0.08800
H208        H  0.54629033  0.53559644  0.02510969     0.11600
C209        C  0.11201022  0.45413654  0.99586048    -0.03000
C210        C  0.09139827  0.44775505  0.02427118    -0.05600
C211        C  0.05548186  0.45510874  0.02320566    -0.20700
C212        C  0.03978813  0.47008644  0.99405851     0.25000
C213        C  0.05990262  0.47370227  0.96481958    -0.18300
C214        C  0.09580974  0.46543889  0.96568839    -0.08200
C215        C  0.00288753  0.48298475  0.99591816    -0.18500
C216        C  0.98950054  0.51261535  0.97794910    -0.23300
C217        C  0.95311786  0.52613675  0.98333665     0.27100
C218        C  0.93218646  0.53721647  0.95588500    -0.20100
C219        C  0.89616057  0.54334691  0.96001623    -0.09700
C220        C  0.88089097  0.53866692  0.99173065    -0.10300
C221        C  0.90265764  0.53189107  0.01965780    -0.03200
C222        C  0.93844377  0.52589830  0.01554352    -0.18300
H223        H  0.10348610  0.43947554  0.04787515     0.10800
H224        H  0.04037199  0.45158984  0.04589591     0.10800
H225        H  0.04827178  0.48405716  0.94167044     0.10500
H226        H  0.11137928  0.47110003  0.94362373     0.11600
H227        H  0.98671874  0.46911647  0.01471327     0.11700
H228        H  0.00490143  0.52654785  0.95864409     0.13600
H229        H  0.94319469  0.53841992  0.93094662     0.10100
H230        H  0.87994656  0.54861037  0.93807841     0.12200
H231        H  0.89165897  0.52888192  0.04449021     0.08800
H232        H  0.95432453  0.51935768  0.03743695     0.11600
C233        C  0.45244525  0.14276096  0.99983008    -0.03000
C234        C  0.46664698  0.17522105  0.98366870    -0.05600
C235        C  0.44735651  0.20982310  0.98146779    -0.20700
C236        C  0.41324807  0.21216717  0.99449759     0.25000
C237        C  0.39929875  0.17982614  0.01084820    -0.18300
C238        C  0.41864086  0.14573775  0.01358484    -0.08200
C239        C  0.39325874  0.24906984  0.99276348    -0.18500
C240        C  0.35795827  0.25024535  0.99009730    -0.23300
C241        C  0.33744997  0.28673092  0.99240032     0.27100
C242        C  0.30552211  0.29052214  0.97485056    -0.20100
C243        C  0.28546330  0.32448453  0.97749799    -0.09700
C244        C  0.29657583  0.35483823  0.99849911    -0.10300
C245        C  0.32810274  0.35034396  0.01671796    -0.03200
C246        C  0.34830905  0.31687982  0.01361026    -0.18300
H247        H  0.49255675  0.17388886  0.97283771     0.10800
H248        H  0.45886081  0.23463173  0.96918317     0.10800
H249        H  0.37358983  0.18098253  0.02211078     0.10500
H250        H  0.40669885  0.12139173  0.02617341     0.11600
H251        H  0.40802242  0.27589993  0.99353270     0.11700
H252        H  0.34351864  0.22360612  0.98585819     0.13600
H253        H  0.29635131  0.26736651  0.95872675     0.10100
H254        H  0.26138581  0.32700350  0.96312156     0.12200
H255        H  0.33761340  0.37304795  0.03313799     0.08800
H256        H  0.37216858  0.31441587  0.02831861     0.11600
C257        C  0.55163064  0.86090281  0.99836470    -0.03000
C258        C  0.53796220  0.82935309  0.98027476    -0.05600
C259        C  0.55661081  0.79433554  0.97872325    -0.20700
C260        C  0.58956106  0.79070735  0.99442398     0.25000
C261        C  0.60282392  0.82194887  0.01297007    -0.18300
C262        C  0.58407055  0.85645646  0.01504115    -0.08200
C263        C  0.60915219  0.75368380  0.99282827    -0.18500
C264        C  0.64445412  0.75229161  0.99144096    -0.23300
C265        C  0.66429786  0.71546908  0.99363423     0.27100
C266        C  0.69551672  0.71062466  0.97560379    -0.20100
C267        C  0.71436030  0.67577406  0.97758115    -0.09700
C268        C  0.70272914  0.64569207  0.99841442    -0.10300
C269        C  0.67220612  0.65146044  0.01743651    -0.03200
C270        C  0.65316219  0.68575976  0.01493701    -0.18300
H271        H  0.51304280  0.83177743  0.96728043     0.10800
H272        H  0.54564432  0.77030063  0.96473998     0.10800
H273        H  0.62758427  0.81960967  0.02626736     0.10500
H274        H  0.59546191  0.87997595  0.02936594     0.11600
H275        H  0.59416366  0.72698663  0.99248333     0.11700
H276        H  0.65924540  0.77885428  0.98827860     0.13600
H277        H  0.70486856  0.73349677  0.95943513     0.10100
H278        H  0.73773802  0.67224934  0.96264893     0.12200
H279        H  0.66238601  0.62901798  0.03379253     0.08800
H280        H  0.62983958  0.68913229  0.02997554     0.11600
C281        C  0.63584917  0.03525840  0.00441213    -0.03000
C282        C  0.65376120  0.03232336  0.03518563    -0.05600
C283        C  0.69012005  0.02834819  0.03611491    -0.20700
C284        C  0.70919536  0.02594927  0.00630416     0.25000
C285        C  0.69162038  0.03074250  0.97543715    -0.18300
C286        C  0.65513962  0.03577086  0.97453771    -0.08200
C287        C  0.74718750  0.01765598  0.00864133    -0.18500
C288        C  0.76379337  0.99328675  0.98763977    -0.23300
C289        C  0.80126900  0.98227927  0.99208441     0.27100
C290        C  0.82061176  0.97006760  0.96414764    -0.20100
C291        C  0.85675924  0.96346528  0.96693115    -0.09700
C292        C  0.87407519  0.96896431  0.99777248    -0.10300
C293        C  0.85419490  0.97788485  0.02625339    -0.03200
C294        C  0.81817421  0.98413877  0.02354017    -0.18300
H295        H  0.63942136  0.03162343  0.05852832     0.10800
H296        H  0.70319962  0.02511057  0.06016456     0.10800
H297        H  0.70593293  0.02989373  0.95210247     0.10500
H298        H  0.64182463  0.03754296  0.95050320     0.11600
H299        H  0.76107387  0.02997048  0.02993116     0.11700
H300        H  0.74960902  0.98128438  0.96633079     0.13600
H301        H  0.80808222  0.96755277  0.93978084     0.10100
H302        H  0.87147425  0.95680345  0.94452746     0.12200
H303        H  0.86681056  0.98179560  0.05044969     0.08800
H304        H  0.80395912  0.99124599  0.04608150     0.11600
C305        C  0.13457226  0.05224650  0.99274828    -0.03000
C306        C  0.15410198  0.05856024  0.02217047    -0.05600
C307        C  0.19052888  0.05478390  0.02206413    -0.20700
C308        C  0.20797447  0.04332363  0.99282826     0.25000
C309        C  0.18870802  0.03971844  0.96275767    -0.18300
C310        C  0.15222048  0.04445553  0.96270916    -0.08200
C311        C  0.24575999  0.03348589  0.99542736    -0.18500
C312        C  0.26116509  0.00538075  0.97717059    -0.23300
C313        C  0.29786833  0.99258013  0.98350202     0.27100
C314        C  0.31805905  0.97793685  0.95700832    -0.20100
C315        C  0.35362285  0.96902640  0.96193080    -0.09700
C316        C  0.36938658  0.97433630  0.99356661    -0.10300
C317        C  0.34830406  0.98574636  0.02061287    -0.03200
C318        C  0.31299914  0.99463896  0.01569987    -0.18300
H319        H  0.14094891  0.06409152  0.04568701     0.10800
H320        H  0.20484557  0.05818788  0.04544265     0.10800
H321        H  0.20156019  0.03199672  0.93958715     0.10500
H322        H  0.13757562  0.03886038  0.93984423     0.11600
H323        H  0.26062127  0.04783286  0.01512957     0.11700
H324        H  0.24662043  0.99114591  0.95719620     0.13600
H325        H  0.30676267  0.97523556  0.93211781     0.10100
H326        H  0.36922100  0.96050492  0.94057664     0.12200
H327        H  0.35954984  0.98962806  0.04541561     0.08800
H328        H  0.29784491  0.00378998  0.03712420     0.11600
C329        C  0.94746977  0.14236085  0.00355027    -0.03000
C330        C  0.92997507  0.15178294  0.03336249    -0.05600
C331        C  0.90742272  0.18349307  0.03479805    -0.20700
C332        C  0.90123599  0.20650486  0.00641864     0.25000
C333        C  0.91925051  0.19779323  0.97659498    -0.18300
C334        C  0.94228263  0.16602510  0.97524090    -0.08200
C335        C  0.87715264  0.24016308  0.01003564    -0.18500
C336        C  0.86054703  0.25834840  0.98453067    -0.23300
C337        C  0.83783578  0.29300833  0.98992547     0.27100
C338        C  0.81161987  0.30252425  0.96632814    -0.20100
C339        C  0.79139824  0.33625612  0.97002972    -0.09700
C340        C  0.79739065  0.36140118  0.99721669    -0.10300
C341        C  0.82315126  0.35139235  0.02106916    -0.03200
C342        C  0.84316801  0.31788873  0.01743590    -0.18300
H343        H  0.93334422  0.13421843  0.05564618     0.10800
H344        H  0.89430172  0.18973139  0.05819949     0.10800
H345        H  0.91584482  0.21547758  0.95443674     0.10500
H346        H  0.95517645  0.15930381  0.95184235     0.11600
H347        H  0.87183741  0.24933114  0.03553155     0.11700
H348        H  0.86291256  0.24722888  0.95918234     0.13600
H349        H  0.80710979  0.28409012  0.94474763     0.10100
H350        H  0.77207033  0.34338280  0.95098892     0.12200
H351        H  0.82868787  0.37017542  0.04220659     0.08800
H352        H  0.86374597  0.31259199  0.03564661     0.11600
C353        C  0.06336792  0.86876978  0.98630832    -0.03000
C354        C  0.10014570  0.87025777  0.98561356    -0.05600
C355        C  0.11995853  0.83648369  0.98335661    -0.20700
C356        C  0.10362148  0.80024944  0.98262012     0.25000
C357        C  0.06669109  0.79852505  0.98252119    -0.18300
C358        C  0.04668398  0.83265812  0.98401875    -0.08200
C359        C  0.12627367  0.76526488  0.98209220    -0.18500
C360        C  0.11758305  0.73186404  0.99718793    -0.23300
C361        C  0.14189677  0.69825648  0.00030538     0.27100
C362        C  0.13605826  0.67131697  0.02592766    -0.20100
C363        C  0.15740179  0.63867363  0.02930586    -0.09700
C364        C  0.18513586  0.63193375  0.00695845    -0.10300
C365        C  0.19149700  0.65923140  0.98163795    -0.03200
C366        C  0.17002855  0.69196256  0.97820919    -0.18300
H367        H  0.11369096  0.89775778  0.98689832     0.10800
H368        H  0.14827639  0.83864595  0.98311662     0.10800
H369        H  0.05330453  0.77097568  0.98115836     0.10500
H370        H  0.01836750  0.83080468  0.98435382     0.11600
H371        H  0.15240902  0.76867848  0.97199939     0.11700
H372        H  0.09261467  0.72999860  0.00999681     0.13600
H373        H  0.11466988  0.67537567  0.04331047     0.10100
H374        H  0.15164960  0.61823633  0.04908473     0.12200
H375        H  0.21225132  0.65458893  0.96369621     0.08800
H376        H  0.17495512  0.71146219  0.95759562     0.11600
C377        C  0.73856137  0.50753322  0.63148416    -0.03000
C378        C  0.72999136  0.54229168  0.64785612    -0.05600
C379        C  0.72889271  0.54415569  0.68278717    -0.20700
C380        C  0.73591317  0.51131872  0.70233582     0.25000
C381        C  0.74419764  0.47630454  0.68605753    -0.18300
C382        C  0.74549116  0.47447783  0.65096864    -0.08200
C383        C  0.73625342  0.51566868  0.73944917    -0.18500
C384        C  0.73316348  0.48599560  0.76108455    -0.23300
C385        C  0.73476449  0.49092475  0.79814486     0.27100
C386        C  0.71967836  0.46252084  0.81856024    -0.20100
C387        C  0.72169966  0.46533482  0.85350171    -0.09700
C388        C  0.73913184  0.49657515  0.86889023    -0.10300
C389        C  0.75427396  0.52504078  0.84846514    -0.03200
C390        C  0.75227302  0.52219934  0.81350860    -0.18300
H391        H  0.72458361  0.56837144  0.63369252     0.10800
H392        H  0.72268772  0.57153012  0.69461268     0.10800
H393        H  0.75065067  0.45054441  0.70018172     0.10500
H394        H  0.75219407  0.44727812  0.63912646     0.11600
H395        H  0.73803771  0.54493569  0.74917739     0.11700
H396        H  0.72808184  0.45711474  0.75155794     0.13600
H397        H  0.70628210  0.43800189  0.80742354     0.10100
H398        H  0.70974388  0.44285138  0.86844372     0.12200
H399        H  0.76814500  0.54929808  0.85946935     0.08800
H400        H  0.76527878  0.54406016  0.79876112     0.11600
C401        C  0.74574662  0.51217503  0.36784946    -0.03000
C402        C  0.76661426  0.54022567  0.35214578    -0.05600
C403        C  0.76624848  0.54403188  0.31723294    -0.20700
C404        C  0.74587662  0.51914469  0.29735775     0.25000
C405        C  0.72513857  0.49092267  0.31293422    -0.18300
C406        C  0.72482460  0.48771454  0.34789445    -0.08200
C407        C  0.74604204  0.52358569  0.26046013    -0.18500
C408        C  0.74758290  0.49288607  0.23983561    -0.23300
C409        C  0.74914022  0.49690313  0.20292787     0.27100
C410        C  0.77046895  0.47167688  0.18458669    -0.20100
C411        C  0.77183305  0.47419452  0.14963498    -0.09700
C412        C  0.75109911  0.50134070  0.13227731    -0.10300
C413        C  0.72946235  0.52640224  0.15069690    -0.03200
C414        C  0.72870095  0.52442180  0.18573582    -0.18300
H415        H  0.78273508  0.55971835  0.36689183     0.10800
H416        H  0.78224501  0.56611135  0.30567096     0.10800
H417        H  0.70872036  0.47182665  0.29809751     0.10500
H418        H  0.70836359  0.46596211  0.35930637     0.11600
H419        H  0.74744622  0.55263380  0.25015419     0.11700
H420        H  0.75005655  0.46403177  0.25041872     0.13600
H421        H  0.78627744  0.45013451  0.19737983     0.10100
H422        H  0.78861183  0.45434964  0.13615421     0.12200
H423        H  0.71314799  0.54756395  0.13802678     0.08800
H424        H  0.71153091  0.54375576  0.19931303     0.11600
C425        C  0.24734574  0.49764375  0.63671775    -0.03000
C426        C  0.25649572  0.46346757  0.65375229    -0.05600
C427        C  0.25575890  0.46185487  0.68871763    -0.20700
C428        C  0.24615010  0.49434881  0.70766536     0.25000
C429        C  0.23686024  0.52864826  0.69069539    -0.18300
C430        C  0.23750995  0.53023628  0.65559215    -0.08200
C431        C  0.24506663  0.49037490  0.74481088    -0.18500
C432        C  0.24426499  0.52032003  0.76646327    -0.23300
C433        C  0.24369155  0.51509832  0.80350790     0.27100
C434        C  0.25597056  0.54513036  0.82415662    -0.20100
C435        C  0.25612885  0.54117057  0.85906817    -0.09700
C436        C  0.24372891  0.50709722  0.87415859    -0.10300
C437        C  0.23078335  0.47732955  0.85350769    -0.03200
C438        C  0.23058955  0.48131703  0.81862410    -0.18300
H439        H  0.26396609  0.43770910  0.64006610     0.10800
H440        H  0.26275616  0.43497404  0.70103603     0.10800
H441        H  0.22839625  0.55409071  0.70417891     0.10500
H442        H  0.23009248  0.55694112  0.64324030     0.11600
H443        H  0.24653333  0.46115925  0.75465641     0.11700
H444        H  0.24593254  0.54970400  0.75710705     0.13600
H445        H  0.26582425  0.57162259  0.81322253     0.10100
H446        H  0.26603765  0.56482493  0.87421394     0.12200
H447        H  0.22056755  0.45094037  0.86428915     0.08800
H448        H  0.21961331  0.45807614  0.80374747     0.11600
C449        C  0.24171852  0.48600911  0.37322148    -0.03000
C450        C  0.22133623  0.45708043  0.35777670    -0.05600
C451        C  0.22226240  0.45189412  0.32293776    -0.20700
C452        C  0.24287743  0.47609446  0.30289009     0.25000
C453        C  0.26327488  0.50495820  0.31834633    -0.18300
C454        C  0.26278824  0.50974851  0.35310716    -0.08200
C455        C  0.24318156  0.47060625  0.26598184    -0.18500
C456        C  0.24541506  0.50078005  0.24483762    -0.23300
C457        C  0.24445957  0.49668166  0.20789414     0.27100
C458        C  0.22752590  0.52534190  0.18895255    -0.20100
C459        C  0.22666645  0.52315252  0.15402253    -0.09700
C460        C  0.24368248  0.49283221  0.13722733    -0.10300
C461        C  0.26129980  0.46441792  0.15610827    -0.03200
C462        C  0.26135888  0.46607217  0.19124979    -0.18300
H463        H  0.20513378  0.43807768  0.37265953     0.10800
H464        H  0.20653151  0.42927982  0.31156637     0.10800
H465        H  0.28010370  0.52345995  0.30364670     0.10500
H466        H  0.27895215  0.53213204  0.36424645     0.11600
H467        H  0.23927797  0.44164151  0.25603370     0.11700
H468        H  0.24546701  0.52999297  0.25493119     0.13600
H469        H  0.21463872  0.54935316  0.20127094     0.10100
H470        H  0.21316154  0.54562185  0.14007759     0.12200
H471        H  0.27465233  0.44078781  0.14371701     0.08800
H472        H  0.27522877  0.44400217  0.20532360     0.11600
C473        C  0.37709906  0.45916965  0.50428178    -0.03000
C474        C  0.39532299  0.45698747  0.47388935    -0.05600
C475        C  0.43141161  0.46321995  0.47307296    -0.20700
C476        C  0.44982859  0.47295809  0.50242738     0.25000
C477        C  0.43208130  0.47288042  0.53323284    -0.18300
C478        C  0.39593621  0.46566916  0.53415712    -0.08200
C479        C  0.48717121  0.48400483  0.49944190    -0.18500
C480        C  0.50241305  0.51212651  0.51793507    -0.23300
C481        C  0.53897706  0.52516765  0.51186778     0.27100
C482        C  0.55935960  0.53954478  0.53858994    -0.20100
C483        C  0.59511769  0.54731604  0.53420242    -0.09700
C484        C  0.61087171  0.54097675  0.50291647    -0.10300
C485        C  0.58962311  0.53030273  0.47552518    -0.03200
C486        C  0.55407700  0.52272597  0.47986595    -0.18300
H487        H  0.38127760  0.45251994  0.45049138     0.10800
H488        H  0.44462093  0.46272377  0.44911113     0.10800
H489        H  0.44587192  0.47934966  0.55638154     0.10500
H490        H  0.38231958  0.46814314  0.55780363     0.11600
H491        H  0.50177887  0.47024488  0.47944864     0.11700
H492        H  0.48798463  0.52565093  0.53819184     0.13600
H493        H  0.54811172  0.54259648  0.56331675     0.10100
H494        H  0.61087132  0.55540338  0.55579041     0.12200
H495        H  0.60092333  0.52576097  0.45098403     0.08800
H496        H  0.53879126  0.51391587  0.45822276     0.11600
C497        C  0.11574630  0.54225103  0.50670293    -0.03000
C498        C  0.09699880  0.54465481  0.47637858    -0.05600
C499        C  0.06055682  0.54117213  0.47589560    -0.20700
C500        C  0.04213600  0.53390535  0.50554649     0.25000
C501        C  0.06061850  0.53349627  0.53623480    -0.18300
C502        C  0.09719458  0.53800633  0.53679970    -0.08200
C503        C  0.00391565  0.52617550  0.50293928    -0.18500
C504        C  0.98670578  0.50063499  0.52245035    -0.23300
C505        C  0.94918494  0.49009095  0.51663645     0.27100
C506        C  0.92889496  0.47609871  0.54333338    -0.20100
C507        C  0.89288733  0.46894773  0.53899835    -0.09700
C508        C  0.87661529  0.47550471  0.50776529    -0.10300
C509        C  0.89752678  0.48661954  0.48054595    -0.03200
C510        C  0.93330259  0.49355376  0.48481468    -0.18300
H511        H  0.11076766  0.54736258  0.45283240     0.10800
H512        H  0.04688976  0.54199038  0.45198770     0.10800
H513        H  0.04700023  0.52888229  0.55960441     0.10500
H514        H  0.11117585  0.53536543  0.56043367     0.11600
H515        H  0.99016760  0.54021010  0.48237558     0.11700
H516        H  0.00042805  0.48690055  0.54322880     0.13600
H517        H  0.94058985  0.47232747  0.56795370     0.10100
H518        H  0.87745742  0.46065493  0.56050722     0.12200
H519        H  0.88588732  0.49147364  0.45603928     0.08800
H520        H  0.94819790  0.50212220  0.46309491     0.11600
C521        C  0.50213003  0.99532451  0.63205725    -0.03000
C522        C  0.51432438  0.96216753  0.64895053    -0.05600
C523        C  0.51352382  0.96004430  0.68389138    -0.20700
C524        C  0.50087653  0.99106332  0.70297735     0.21800
C525        C  0.48851771  0.02432476  0.68621636    -0.18300
C526        C  0.48921177  0.02642646  0.65110345    -0.08200
C527        C  0.50018624  0.98688231  0.74010916    -0.18500
C528        C  0.50066875  0.01703202  0.76152297    -0.23300
C529        C  0.50176794  0.01251706  0.79865446     0.27100
C530        C  0.51553289  0.04277885  0.81813674    -0.20100
C531        C  0.51682812  0.04003087  0.85310400    -0.09700
C532        C  0.50400790  0.00701565  0.86954763    -0.10300
C533        C  0.48995758  0.97675146  0.85006554    -0.03200
C534        C  0.48876514  0.97946756  0.81502657    -0.18300
H535        H  0.52439645  0.93759160  0.63517474     0.10800
H536        H  0.52301219  0.93402641  0.69609346     0.10800
H537        H  0.47765559  0.04843458  0.69998975     0.10500
H538        H  0.47934060  0.05224391  0.63888830     0.11600
H539        H  0.50161425  0.95768906  0.75002972     0.11700
H540        H  0.50255595  0.04620003  0.75164770     0.13600
H541        H  0.52550104  0.06864811  0.80623063     0.10100
H542        H  0.52765668  0.06400355  0.86725795     0.12200
H543        H  0.47952748  0.95107573  0.86189423     0.08800
H544        H  0.47697347  0.95598511  0.80101884     0.11600
C545        C  0.50684919  0.98406049  0.36879688    -0.03000
C546        C  0.48803618  0.95399569  0.35318246    -0.05600
C547        C  0.48940930  0.94898793  0.31838406    -0.20700
C548        C  0.50875964  0.97459020  0.29854673     0.25000
C549        C  0.52794479  0.00434718  0.31416395    -0.18300
C550        C  0.52720708  0.00884031  0.34897991    -0.08200
C551        C  0.50843181  0.97012819  0.26159779    -0.18500
C552        C  0.50637164  0.00104630  0.24125533    -0.23300
C553        C  0.50443804  0.99817253  0.20425023     0.27100
C554        C  0.48515956  0.02611464  0.18656348    -0.20100
C555        C  0.48399272  0.02565183  0.15157997    -0.09700
C556        C  0.50287009  0.99776954  0.13348988    -0.10300
C557        C  0.52231094  0.96974340  0.15117280    -0.03200
C558        C  0.52286564  0.96972814  0.18630769    -0.18300
H559        H  0.47253020  0.93413908  0.36791588     0.10800
H560        H  0.47468351  0.92567380  0.30684572     0.10800
H561        H  0.54370462  0.02398406  0.29946403     0.10500
H562        H  0.54217787  0.03205925  0.36035881     0.11600
H563        H  0.50715398  0.94113757  0.25111654     0.11700
H564        H  0.50382815  0.02969112  0.25225193     0.13600
H565        H  0.47094404  0.04841593  0.19989784     0.10100
H566        H  0.46893029  0.04772693  0.13866299     0.12200
H567        H  0.53708495  0.94790039  0.13784899     0.08800
H568        H  0.53849404  0.94824483  0.19933830     0.11600
C569        C  0.30701212  0.63330989  0.50624384    -0.03000
C570        C  0.33939507  0.63383590  0.48948869    -0.05600
C571        C  0.36233136  0.66495175  0.49297616    -0.20700
C572        C  0.35334561  0.69692958  0.51264454     0.25000
C573        C  0.32077896  0.69707415  0.52910512    -0.18300
C574        C  0.29790968  0.66534816  0.52614577    -0.08200
C575        C  0.37893903  0.72917112  0.51546400    -0.18500
C576        C  0.36912635  0.76644067  0.51714097    -0.23300
C577        C  0.39439908  0.79887380  0.51397369     0.27100
C578        C  0.38355769  0.83206879  0.49672301    -0.20100
C579        C  0.40624063  0.86328505  0.49278805    -0.09700
C580        C  0.44026711  0.86259964  0.50669144    -0.10300
C581        C  0.45118665  0.82942469  0.52432651    -0.03200
C582        C  0.42851823  0.79764851  0.52770880    -0.18300
H583        H  0.34764691  0.60958342  0.47422815     0.10800
H584        H  0.38720179  0.66410382  0.48007772     0.10800
H585        H  0.31336814  0.72117566  0.54490800     0.10500
H586        H  0.27341303  0.66568858  0.53964823     0.11600
H587        H  0.40648417  0.72231511  0.51219108     0.11700
H588        H  0.34139008  0.77348731  0.51684567     0.13600
H589        H  0.35745832  0.83373944  0.48595983     0.10100
H590        H  0.39667155  0.88843330  0.47934233     0.12200
H591        H  0.47705171  0.82813570  0.53559688     0.08800
H592        H  0.43740297  0.77256011  0.54163181     0.11600
C593        C  0.68972403  0.36728061  0.50040120    -0.03000
C594        C  0.65833076  0.36393008  0.48175948    -0.05600
C595        C  0.63673691  0.33169571  0.48507113    -0.20700
C596        C  0.64616871  0.30128912  0.50641740     0.25000
C597        C  0.67801091  0.30365248  0.52444058    -0.18300
C598        C  0.69949216  0.33656787  0.52167124    -0.08200
C599        C  0.62158060  0.26818960  0.50956374    -0.18500
C600        C  0.63250304  0.23135167  0.51189738    -0.23300
C601        C  0.60807233  0.19804861  0.50893930     0.27100
C602        C  0.61893026  0.16566176  0.49070811    -0.20100
C603        C  0.59709690  0.13357261  0.48721987    -0.09700
C604        C  0.56399120  0.13246549  0.50261672    -0.10300
C605        C  0.55300847  0.16495535  0.52107664    -0.03200
C606        C  0.57475416  0.19766503  0.52394327    -0.18300
H607        H  0.64964209  0.38690245  0.46519984     0.10800
H608        H  0.61246104  0.33052652  0.47085694     0.10800
H609        H  0.68573897  0.28069066  0.54142136     0.10500
H610        H  0.72324455  0.33831450  0.53659170     0.11600
H611        H  0.59381647  0.27391347  0.50591733     0.11700
H612        H  0.66043934  0.22531366  0.51186300     0.13600
H613        H  0.64439831  0.16527465  0.47890092     0.10100
H614        H  0.60673659  0.10908858  0.47302826     0.12200
H615        H  0.52787525  0.16494454  0.53347710     0.08800
H616        H  0.56590426  0.22220050  0.53852667     0.11600
C617        C  0.00554358  0.98815521  0.62960758    -0.03000
C618        C  0.02425967  0.95938658  0.64711132    -0.05600
C619        C  0.02353606  0.95788700  0.68216470    -0.20700
C620        C  0.00435565  0.98521473  0.70052805     0.25000
C621        C  0.98544660  0.01387731  0.68304374    -0.18300
C622        C  0.98616398  0.01539452  0.64801038    -0.08200
C623        C  0.00371355  0.98223241  0.73772327    -0.18500
C624        C  0.99835396  0.01289870  0.75791608    -0.23300
C625        C  0.99870438  0.01033857  0.79510292     0.27100
C626        C  0.00860939  0.04302509  0.81371413    -0.20100
C627        C  0.00928719  0.04195865  0.84874050    -0.09700
C628        C  0.99956049  0.00824546  0.86605751    -0.10300
C629        C  0.98891577  0.97568080  0.84740867    -0.03200
C630        C  0.98851059  0.97667972  0.81228826    -0.18300
H631        H  0.03946112  0.93795178  0.63373778     0.10800
H632        H  0.03815489  0.93538716  0.69500605     0.10800
H633        H  0.96946108  0.03470672  0.69623138     0.10500
H634        H  0.97113230  0.03766558  0.63532841     0.11600
H635        H  0.00977868  0.95428416  0.74876431     0.11700
H636        H  0.99581519  0.04153317  0.74699215     0.13600
H637        H  0.01625334  0.06940512  0.80107747     0.10100
H638        H  0.01743779  0.06765163  0.86223941     0.12200
H639        H  0.98094952  0.94936549  0.85993199     0.08800
H640        H  0.97971091  0.95131268  0.79873217     0.11600
C641        C  0.00228541  0.00446663  0.36586868    -0.03000
C642        C  0.02169432  0.03408248  0.35061515    -0.05600
C643        C  0.02264742  0.03735789  0.31568179    -0.20700
C644        C  0.00502635  0.01053669  0.29526818     0.25000
C645        C  0.98533957  0.98106122  0.31043300    -0.18300
C646        C  0.98377921  0.97824685  0.34541601    -0.08200
C647        C  0.00657399  0.01489453  0.25830844    -0.18500
C648        C  0.00686503  0.98449344  0.23718551    -0.23300
C649        C  0.00839767  0.98909714  0.20021240     0.27100
C650        C  0.02570717  0.96109822  0.18090147    -0.20100
C651        C  0.02687546  0.96440203  0.14592486    -0.09700
C652        C  0.00982813  0.99520360  0.12958485    -0.10300
C653        C  0.99216738  0.02296728  0.14889698    -0.03200
C654        C  0.99164991  0.02012180  0.18385772    -0.18300
H655        H  0.03601893  0.05487715  0.36571084     0.10800
H656        H  0.03764859  0.06055721  0.30453700     0.10800
H657        H  0.97074427  0.96054370  0.29530805     0.10500
H658        H  0.96855577  0.95517103  0.35645404     0.11600
H659        H  0.00954051  0.04394467  0.24835356     0.11700
H660        H  0.00766271  0.95532594  0.24730424     0.13600
H661        H  0.03852576  0.93676117  0.19294091     0.10100
H662        H  0.04043873  0.94243222  0.13160810     0.12200
H663        H  0.97879023  0.04698398  0.13693812     0.08800
H664        H  0.97737544  0.04168643  0.19796320     0.11600
C665        C  0.63362261  0.95161573  0.50674233    -0.03000
C666        C  0.65289742  0.94369576  0.47775455    -0.05600
C667        C  0.68932061  0.94723529  0.47802375    -0.20700
C668        C  0.70703320  0.96006337  0.50692399     0.25000
C669        C  0.68794146  0.96576686  0.53659438    -0.18300
C670        C  0.65144078  0.96127950  0.53651291    -0.08200
C671        C  0.74503154  0.96848720  0.50435210    -0.18500
C672        C  0.76166281  0.99616928  0.52225619    -0.23300
C673        C  0.79881936  0.00668809  0.51589305     0.27100
C674        C  0.82017560  0.01992546  0.54236040    -0.20100
C675        C  0.85604648  0.02646910  0.53735365    -0.09700
C676        C  0.87097913  0.02003270  0.50570220    -0.10300
C677        C  0.84899446  0.00976837  0.47874202    -0.03200
C678        C  0.81331971  0.00346837  0.48368627    -0.18300
H679        H  0.63956725  0.93677084  0.45442911     0.10800
H680        H  0.70348223  0.94226018  0.45496383     0.10800
H681        H  0.70094308  0.97464439  0.55954229     0.10500
H682        H  0.63692563  0.96818340  0.55899050     0.11600
H683        H  0.75924370  0.95301182  0.48503139     0.11700
H684        H  0.74796628  0.01150550  0.54199026     0.13600
H685        H  0.80945360  0.02340432  0.56726245     0.10100
H686        H  0.87241519  0.03416903  0.55863210     0.12200
H687        H  0.85968974  0.00512397  0.45396866     0.08800
H688        H  0.79733344  0.99533881  0.46229704     0.11600
C689        C  0.13756472  0.96089873  0.49625208    -0.03000
C690        C  0.15579726  0.95911412  0.46587006    -0.05600
C691        C  0.19190124  0.96557458  0.46515693    -0.20700
C692        C  0.21026393  0.97531230  0.49458591     0.25000
C693        C  0.19238026  0.97509366  0.52532934    -0.18300
C694        C  0.15630029  0.96759975  0.52614413    -0.08200
C695        C  0.24775412  0.98616291  0.49183911    -0.18500
C696        C  0.26360867  0.01259202  0.51173403    -0.23300
C697        C  0.30070659  0.02460340  0.50692499     0.27100
C698        C  0.32073978  0.03689256  0.53465772    -0.20100
C699        C  0.35682109  0.04357487  0.53149598    -0.09700
C700        C  0.37335098  0.03819085  0.50044960    -0.10300
C701        C  0.35261130  0.02961095  0.47214551    -0.03200
C702        C  0.31669179  0.02313788  0.47526938    -0.18300
H703        H  0.14180223  0.95442282  0.44248301     0.10800
H704        H  0.20518949  0.96508045  0.44123759     0.10800
H705        H  0.20601393  0.98142762  0.54858188     0.10500
H706        H  0.14264226  0.96972007  0.54979932     0.11600
H707        H  0.26215822  0.97328152  0.47128298     0.11700
H708        H  0.24937788  0.02524424  0.53252711     0.13600
H709        H  0.30888929  0.03909754  0.55919178     0.10100
H710        H  0.37214664  0.04991871  0.55379425     0.12200
H711        H  0.36454972  0.02572547  0.44780288     0.08800
H712        H  0.30180542  0.01587801  0.45295184     0.11600
C713        C  0.79709676  0.64550841  0.50319012    -0.03000
C714        C  0.79887213  0.66773700  0.53265824    -0.05600
C715        C  0.82239633  0.69884000  0.53514283    -0.20700
C716        C  0.84453803  0.70834599  0.50830049     0.25000
C717        C  0.84107624  0.68735738  0.47817195    -0.18300
C718        C  0.81790529  0.65626254  0.47581491    -0.08200
C719        C  0.87031829  0.74057301  0.51236701    -0.18500
C720        C  0.89768510  0.74629956  0.49166679    -0.23300
C721        C  0.92113366  0.78049344  0.49377880     0.27100
C722        C  0.93377917  0.79645172  0.46388098    -0.20100
C723        C  0.95354906  0.83044705  0.46436453    -0.09700
C724        C  0.96217211  0.84843513  0.49489703    -0.10300
C725        C  0.95151175  0.83117233  0.52502935    -0.03200
C726        C  0.93083087  0.79763191  0.52450688    -0.18300
H727        H  0.78335134  0.65998515  0.55425257     0.10800
H728        H  0.82399990  0.71485874  0.55847614     0.10800
H729        H  0.85612580  0.69448316  0.45620870     0.10500
H730        H  0.81685177  0.63996672  0.45259803     0.11600
H731        H  0.86629349  0.76058355  0.53302333     0.11700
H732        H  0.90213487  0.72681406  0.47081794     0.13600
H733        H  0.92698243  0.78353047  0.43992414     0.10100
H734        H  0.96133447  0.84332601  0.44081558     0.12200
H735        H  0.95754522  0.84478957  0.54886458     0.08800
H736        H  0.92218985  0.78541830  0.54801207     0.11600
C737        C  0.18495891  0.36404839  0.51661238    -0.03000
C738        C  0.14892326  0.36604052  0.50896439    -0.05600
C739        C  0.12723465  0.33406096  0.51331184    -0.20700
C740        C  0.14089199  0.29887936  0.52483077     0.25000
C741        C  0.17688941  0.29676270  0.53313399    -0.18300
C742        C  0.19868413  0.32920318  0.52922498    -0.08200
C743        C  0.11665398  0.26524346  0.52708190    -0.18500
C744        C  0.12727765  0.22847854  0.52297789    -0.23300
C745        C  0.10290770  0.19515740  0.51887042     0.27100
C746        C  0.11495412  0.16303925  0.50096052    -0.20100
C747        C  0.09352583  0.13099610  0.49576570    -0.09700
C748        C  0.05937467  0.12966131  0.50885482    -0.10300
C749        C  0.04715736  0.16164927  0.52720777    -0.03200
C750        C  0.06866234  0.19428382  0.53203528    -0.18300
H751        H  0.13724281  0.39260842  0.49980489     0.10800
H752        H  0.09966082  0.33666137  0.50697439     0.10800
H753        H  0.18818905  0.27034335  0.54292437     0.10500
H754        H  0.22621221  0.32694130  0.53575271     0.11600
H755        H  0.08876867  0.27139410  0.52825180     0.11700
H756        H  0.15492089  0.22285970  0.51881078     0.13600
H757        H  0.14115723  0.16277950  0.49064712     0.10100
H758        H  0.10419539  0.10679104  0.48192220     0.12200
H759        H  0.02118317  0.16133993  0.53796630     0.08800
H760        H  0.05870135  0.21825404  0.54658680     0.11600
loop_ 
_geom_bond_atom_site_label_1 
_geom_bond_atom_site_label_2 
_geom_bond_distance 
_geom_bond_site_symmetry_2 
_ccdc_geom_bond_type 
O1           C17   1.273       .  A
O1           Zn7   2.018       .  S
C2           O18   1.271       .  A
C2           O15   1.280       .  A
C2          C748   1.488       .  S
O3           C16   1.278       .  A
O3          Cd10   2.095       .  S
O4           C22   1.275   1_645  A
O4          Cd13   2.074       .  S
O5           C19   1.274   1_565  A
O5           Cd9   2.053       .  S
O6           C17   1.274   1_665  A
O6           Cd9   2.074       .  S
Zn7          O18   1.984       .  S
Zn7          O20   1.992   1_545  S
Zn7          O12   1.924   1_545  S
O8           C19   1.280       .  A
O8          Cd13   2.098       .  S
Cd9          O11   2.057       .  S
Cd9          O12   1.989   1_655  S
Cd10         O14   2.101       .  S
Cd10         O23   2.072       .  S
Cd10         O12   2.013       .  S
O11          C21   1.273       .  A
O12         Cd13   2.021   1_465  S
Cd13         O15   2.112   1_655  S
O14          C21   1.279   1_455  A
C16          O20   1.271       .  A
C16         C689   1.473       .  S
C17         C641   1.481       .  S
C19         C676   1.480       .  S
C21         C724   1.477       .  S
C22          O23   1.275       .  A
C22         C617   1.484       .  S
O24          C40   1.273       .  A
O24         Zn30   1.990   1_545  S
C25          O41   1.274       .  A
C25          O38   1.273   1_565  A
C25         C545   1.479       .  S
O26          C39   1.278       .  A
O26         Cd33   2.104       .  S
O27          C45   1.271       .  A
O27         Cd36   2.043   1_565  S
O28          C42   1.281       .  A
O28         Cd32   2.118       .  S
O29          C40   1.280       .  A
O29         Cd32   2.102       .  S
Zn30         O41   2.023       .  S
Zn30         O43   1.988       .  S
Zn30         O35   1.926       .  S
O31          C42   1.273       .  A
O31         Cd36   2.046       .  S
Cd32         O34   2.089       .  S
Cd32         O35   2.022   1_545  S
Cd33         O37   2.060       .  S
Cd33         O46   2.094       .  S
Cd33         O35   2.015       .  S
O34          C44   1.278   1_545  A
O35         Cd36   1.981   1_565  S
Cd36         O38   2.064       .  S
O37          C44   1.274       .  A
C39          O43   1.271       .  A
C39         C580   1.487       .  S
C40         C700   1.480       .  S
C42         C604   1.490       .  S
C44         C521   1.485       .  S
C45          O46   1.277       .  A
C45         C665   1.469       .  S
O47          C63   1.272       .  A
O47         Zn53   1.989       .  S
C48          O64   1.274       .  A
C48          O61   1.272       .  A
C48         C449   1.481       .  S
O49          C62   1.279       .  A
O49         Cd56   2.109       .  S
O50          C68   1.271       .  A
O50         Cd59   2.037       .  S
O51          C65   1.281       .  A
O51         Cd55   2.117       .  S
O52          C63   1.279       .  A
O52         Cd55   2.106       .  S
Zn53         O64   2.032       .  S
Zn53         O66   1.985       .  S
Zn53         O58   1.925       .  S
O54          C65   1.272       .  A
O54         Cd59   2.040       .  S
Cd55         O57   2.081       .  S
Cd55         O58   2.021       .  S
Cd56         O60   2.067       .  S
Cd56         O69   2.103       .  S
Cd56         O58   2.017       .  S
O57          C67   1.277       .  A
O58         Cd59   1.976       .  S
Cd59         O61   2.057       .  S
O60          C67   1.275       .  A
C62          O66   1.271       .  A
C62         C737   1.485       .  S
C63         C497   1.475       .  S
C65         C569   1.488       .  S
C67         C425   1.484       .  S
C68          O69   1.279       .  A
C68         C473   1.473       .  S
O70          C86   1.273       .  A
O70         Zn76   2.020       .  S
C71          O87   1.271       .  A
C71          O84   1.278       .  A
C71         C713   1.482       .  S
O72          C85   1.281       .  A
O72         Cd79   2.115       .  S
O73          C91   1.274       .  A
O73         Cd82   2.057       .  S
O74          C88   1.272       .  A
O74         Cd78   2.042       .  S
O75          C86   1.272       .  A
O75         Cd78   2.064       .  S
Zn76         O87   1.987       .  S
Zn76         O89   1.987       .  S
Zn76         O81   1.927       .  S
O77          C88   1.278       .  A
O77         Cd82   2.098       .  S
Cd78         O80   2.038       .  S
Cd78         O81   1.980       .  S
Cd79         O83   2.123       .  S
Cd79         O92   2.089       .  S
Cd79         O81   2.027       .  S
O80          C90   1.272       .  A
O81         Cd82   2.016       .  S
Cd82         O84   2.103       .  S
O83          C90   1.282       .  A
C85          O89   1.272       .  A
C85         C508   1.485       .  S
C86         C401   1.479       .  S
C88         C484   1.479       .  S
C90         C593   1.491       .  S
C91          O92   1.277       .  A
C91         C377   1.484       .  S
O93         C109   1.272   1_554  A
O93         Zn99   1.989   1_565  S
C94         O110   1.273   1_465  A
C94         O107   1.273       .  A
C94         C652   1.479       .  S
O95         C108   1.279   1_556  A
O95        Cd102   2.108   1_655  S
O96         C114   1.272   1_554  A
O96        Cd105   2.044   1_545  S
O97         C111   1.279       .  A
O97        Cd101   2.108   1_455  S
O98         C109   1.278       .  A
O98        Cd101   2.090       .  S
Zn99        O110   2.017       .  S
Zn99        O112   1.993       .  S
Zn99        O104   1.927   1_654  S
O100        C111   1.273   1_554  A
O100       Cd105   2.047       .  S
Cd101       O103   2.081       .  S
Cd101       O104   2.019   1_665  S
Cd102       O106   2.070       .  S
Cd102       O115   2.102       .  S
Cd102       O104   2.016       .  S
O103        C113   1.277   1_665  A
O104       Cd105   1.982   1_546  S
Cd105       O107   2.073       .  S
O106        C113   1.276       .  A
C108        O112   1.272       .  A
C108        C329   1.485       .  S
C109        C292   1.477       .  S
C111        C353   1.479       .  S
C113        C628   1.485   1_455  S
C114        O115   1.279       .  A
C114        C305   1.471       .  S
O116        C132   1.272       .  A
O116       Zn122   1.989   1_545  S
C117        O133   1.273       .  A
C117        O130   1.272   1_565  A
C117        C556   1.479       .  S
O118        C131   1.280       .  A
O118       Cd125   2.111       .  S
O119        C137   1.271   1_554  A
O119       Cd128   2.034   1_565  S
O120        C134   1.280   1_556  A
O120       Cd124   2.113       .  S
O121        C132   1.278   1_556  A
O121       Cd124   2.100       .  S
Zn122       O133   2.025       .  S
Zn122       O135   1.982       .  S
Zn122       O127   1.928   1_565  S
O123        C134   1.271       .  A
O123       Cd128   2.037       .  S
Cd124       O126   2.074       .  S
Cd124       O127   2.019   1_556  S
Cd125       O129   2.082       .  S
Cd125       O138   2.106       .  S
Cd125       O127   2.022   1_566  S
O126        C136   1.276       .  A
O127       Cd128   1.976       .  S
Cd128       O130   2.057       .  S
O129        C136   1.277   1_565  A
C131        O135   1.271   1_556  A
C131        C257   1.486       .  S
C132        C281   1.474       .  S
C134        C233   1.487   1_554  S
C136        C532   1.486       .  S
C137        O138   1.279       .  A
C137        C316   1.481       .  S
O139        C155   1.274       .  A
O139       Zn145   2.034       .  S
C140        O156   1.272       .  A
C140        O153   1.280   1_554  A
C140        C244   1.488   1_554  S
O141        C154   1.278   1_556  A
O141       Cd148   2.094       .  S
O142        C160   1.276       .  A
O142       Cd151   2.076       .  S
O143        C157   1.272   1_554  A
O143       Cd147   2.040       .  S
O144        C155   1.272       .  A
O144       Cd147   2.054       .  S
Zn145       O156   1.991       .  S
Zn145       O158   1.977       .  S
Zn145       O150   1.925       .  S
O146        C157   1.277       .  A
O146       Cd151   2.089       .  S
Cd147       O149   2.051       .  S
Cd147       O150   1.977       .  S
Cd148       O152   2.099       .  S
Cd148       O161   2.068       .  S
Cd148       O150   2.017   1_556  S
O149        C159   1.272       .  A
O150       Cd151   2.014   1_554  S
Cd151       O153   2.108       .  S
O152        C159   1.279   1_556  A
C154        O158   1.271       .  A
C154        C185   1.482       .  S
C155        C460   1.477       .  S
C157        C209   1.467       .  S
C159        C364   1.485       .  S
C160        O161   1.275       .  A
C160        C436   1.484       .  S
O162        C178   1.271       .  A
O162       Zn168   1.977       .  S
C163        O179   1.273       .  A
C163        O176   1.273       .  A
C163        C412   1.481       .  S
O164        C177   1.278       .  A
O164       Cd171   2.100       .  S
O165        C183   1.274   1_554  A
O165       Cd174   2.046       .  S
O166        C180   1.279       .  A
O166       Cd170   2.104       .  S
O167        C178   1.278   1_556  A
O167       Cd170   2.094       .  S
Zn168       O179   2.021       .  S
Zn168       O181   1.983       .  S
Zn168       O173   1.923       .  S
O169        C180   1.273   1_554  A
O169       Cd174   2.052       .  S
Cd170       O172   2.067       .  S
Cd170       O173   2.017   1_556  S
Cd171       O175   2.079       .  S
Cd171       O184   2.089       .  S
Cd171       O173   2.017   1_556  S
O172        C182   1.275       .  A
O173       Cd174   1.979       .  S
Cd174       O176   2.066       .  S
O175        C182   1.277       .  A
C177        O181   1.271   1_556  A
C177        C268   1.484       .  S
C178        C196   1.481       .  S
C180        C340   1.486       .  S
C182        C388   1.484       .  S
C183        O184   1.278       .  A
C183        C220   1.475       .  S
C185        C186   1.407   1_554  A
C185        C190   1.407       .  A
C186        C187   1.404       .  A
C186        H199   1.083       .  S
C187        C188   1.405       .  A
C187        H200   1.083       .  S
C188        C189   1.401   1_556  A
C188        C191   1.479       .  S
C189        C190   1.389       .  A
C189        H201   1.083       .  S
C190        H202   1.083       .  S
C191        C192   1.348       .  D
C191        H203   1.086       .  S
C192        C193   1.479       .  S
C192        H204   1.087       .  S
C193        C194   1.405       .  A
C193        C198   1.401   1_556  A
C194        C195   1.403       .  A
C194        H205   1.083       .  S
C195        C196   1.405   1_556  A
C195        H206   1.083       .  S
C196        C197   1.408       .  A
C197        C198   1.391       .  A
C197        H207   1.083       .  S
C198        H208   1.083       .  S
C209        C210   1.402   1_556  A
C209        C214   1.404       .  A
C210        C211   1.394       .  A
C210        H223   1.084       .  S
C211        C212   1.403   1_554  A
C211        H224   1.083       .  S
C212        C213   1.406       .  A
C212        C215   1.479       .  S
C213        C214   1.400       .  A
C213        H225   1.082       .  S
C214        H226   1.083       .  S
C215        C216   1.348   1_455  D
C215        H227   1.086   1_456  S
C216        C217   1.482       .  S
C216        H228   1.085   1_655  S
C217        C218   1.403       .  A
C217        C222   1.405   1_556  A
C218        C219   1.402       .  A
C218        H229   1.083       .  S
C219        C220   1.406       .  A
C219        H230   1.083       .  S
C220        C221   1.404   1_556  A
C221        C222   1.392       .  A
C221        H231   1.083       .  S
C222        H232   1.083       .  S
C233        C234   1.406       .  A
C233        C238   1.409   1_556  A
C234        C235   1.406       .  A
C234        H247   1.083       .  S
C235        C236   1.407       .  A
C235        H248   1.083       .  S
C236        C237   1.402   1_556  A
C236        C239   1.487       .  S
C237        C238   1.394       .  A
C237        H249   1.083       .  S
C238        H250   1.083       .  S
C239        C240   1.351       .  D
C239        H251   1.086       .  S
C240        C241   1.487       .  S
C240        H252   1.086       .  S
C241        C242   1.407       .  A
C241        C246   1.403   1_556  A
C242        C243   1.405       .  A
C242        H253   1.083       .  S
C243        C244   1.406       .  A
C243        H254   1.083       .  S
C244        C245   1.409   1_556  A
C245        C246   1.395       .  A
C245        H255   1.083       .  S
C246        H256   1.083       .  S
C257        C258   1.406       .  A
C257        C262   1.409   1_556  A
C258        C259   1.405       .  A
C258        H271   1.083       .  S
C259        C260   1.406       .  A
C259        H272   1.083       .  S
C260        C261   1.401   1_556  A
C260        C263   1.483       .  S
C261        C262   1.393       .  A
C261        H273   1.083       .  S
C262        H274   1.083       .  S
C263        C264   1.350       .  D
C263        H275   1.086       .  S
C264        C265   1.483       .  S
C264        H276   1.086       .  S
C265        C266   1.406       .  A
C265        C270   1.401   1_556  A
C266        C267   1.404       .  A
C266        H277   1.083       .  S
C267        C268   1.406       .  A
C267        H278   1.083       .  S
C268        C269   1.409   1_556  A
C269        C270   1.393       .  A
C269        H279   1.083       .  S
C270        H280   1.083       .  S
C281        C282   1.404       .  A
C281        C286   1.405   1_554  A
C282        C283   1.395       .  A
C282        H295   1.083       .  S
C283        C284   1.401       .  A
C283        H296   1.084       .  S
C284        C285   1.407   1_554  A
C284        C287   1.480       .  S
C285        C286   1.403       .  A
C285        H297   1.083       .  S
C286        H298   1.083       .  S
C287        C288   1.348   1_544  D
C287        H299   1.084       .  S
C288        C289   1.489       .  S
C288        H300   1.086       .  S
C289        C290   1.405       .  A
C289        C294   1.408   1_556  A
C290        C291   1.402       .  A
C290        H301   1.083       .  S
C291        C292   1.405       .  A
C291        H302   1.083       .  S
C292        C293   1.404   1_556  A
C293        C294   1.395       .  A
C293        H303   1.083       .  S
C294        H304   1.081       .  S
C305        C306   1.402   1_556  A
C305        C310   1.404       .  A
C306        C307   1.396       .  A
C306        H319   1.084       .  S
C307        C308   1.403   1_554  A
C307        H320   1.083       .  S
C308        C309   1.407       .  A
C308        C311   1.484       .  S
C309        C310   1.402       .  A
C309        H321   1.082       .  S
C310        H322   1.083       .  S
C311        C312   1.350       .  D
C311        H323   1.085   1_556  S
C312        C313   1.488   1_545  S
C312        H324   1.085   1_545  S
C313        C314   1.406       .  A
C313        C318   1.406   1_556  A
C314        C315   1.404       .  A
C314        H325   1.083       .  S
C315        C316   1.405       .  A
C315        H326   1.083       .  S
C316        C317   1.406   1_556  A
C317        C318   1.394       .  A
C317        H327   1.083       .  S
C318        H328   1.082   1_565  S
C329        C330   1.405       .  A
C329        C334   1.407   1_554  A
C330        C331   1.394       .  A
C330        H343   1.083       .  S
C331        C332   1.402       .  A
C331        H344   1.084       .  S
C332        C333   1.410   1_554  A
C332        C335   1.489       .  S
C333        C334   1.407       .  A
C333        H345   1.082       .  S
C334        H346   1.083       .  S
C335        C336   1.350   1_554  D
C335        H347   1.085       .  S
C336        C337   1.494       .  S
C336        H348   1.085       .  S
C337        C338   1.407       .  A
C337        C342   1.407   1_556  A
C338        C339   1.406       .  A
C338        H349   1.083       .  S
C339        C340   1.406       .  A
C339        H350   1.083       .  S
C340        C341   1.406   1_556  A
C341        C342   1.395       .  A
C341        H351   1.083       .  S
C342        H352   1.081       .  S
C353        C354   1.405       .  A
C353        C358   1.404       .  A
C354        C355   1.393       .  A
C354        H367   1.084       .  S
C355        C356   1.400       .  A
C355        H368   1.084       .  S
C356        C357   1.411       .  A
C356        C359   1.486       .  S
C357        C358   1.406       .  A
C357        H369   1.082       .  S
C358        H370   1.083       .  S
C359        C360   1.345       .  D
C359        H371   1.085       .  S
C360        C361   1.491   1_556  S
C360        H372   1.086   1_556  S
C361        C362   1.402       .  A
C361        C366   1.410   1_554  A
C362        C363   1.397       .  A
C362        H373   1.084       .  S
C363        C364   1.408       .  A
C363        H374   1.083       .  S
C364        C365   1.405   1_554  A
C365        C366   1.402       .  A
C365        H375   1.083       .  S
C366        H376   1.081       .  S
C377        C378   1.406       .  A
C377        C382   1.406       .  A
C378        C379   1.395       .  A
C378        H391   1.083       .  S
C379        C380   1.402       .  A
C379        H392   1.084       .  S
C380        C381   1.410       .  A
C380        C383   1.487       .  S
C381        C382   1.402       .  A
C381        H393   1.081       .  S
C382        H394   1.083       .  S
C383        C384   1.346       .  D
C383        H395   1.085       .  S
C384        C385   1.488       .  S
C384        H396   1.085       .  S
C385        C386   1.403       .  A
C385        C390   1.409       .  A
C386        C387   1.398       .  A
C386        H397   1.083       .  S
C387        C388   1.407       .  A
C387        H398   1.083       .  S
C388        C389   1.405       .  A
C389        C390   1.399       .  A
C389        H399   1.083       .  S
C390        H400   1.081       .  S
C401        C402   1.406       .  A
C401        C406   1.406       .  A
C402        C403   1.398       .  A
C402        H415   1.083       .  S
C403        C404   1.401       .  A
C403        H416   1.083       .  S
C404        C405   1.405       .  A
C404        C407   1.479       .  S
C405        C406   1.398       .  A
C405        H417   1.083       .  S
C406        H418   1.083       .  S
C407        C408   1.343       .  D
C407        H419   1.087       .  S
C408        C409   1.480       .  S
C408        H420   1.087       .  S
C409        C410   1.401       .  A
C409        C414   1.405       .  A
C410        C411   1.398       .  A
C410        H421   1.083       .  S
C411        C412   1.406       .  A
C411        H422   1.083       .  S
C412        C413   1.406       .  A
C413        C414   1.399       .  A
C413        H423   1.083       .  S
C414        H424   1.083       .  S
C425        C426   1.405       .  A
C425        C430   1.406       .  A
C426        C427   1.396       .  A
C426        H439   1.083       .  S
C427        C428   1.403       .  A
C427        H440   1.083       .  S
C428        C429   1.409       .  A
C428        C431   1.488       .  S
C429        C430   1.401       .  A
C429        H441   1.081       .  S
C430        H442   1.083       .  S
C431        C432   1.348       .  D
C431        H443   1.085       .  S
C432        C433   1.488       .  S
C432        H444   1.084       .  S
C433        C434   1.403       .  A
C433        C438   1.408       .  A
C434        C435   1.399       .  A
C434        H445   1.083       .  S
C435        C436   1.407       .  A
C435        H446   1.083       .  S
C436        C437   1.405       .  A
C437        C438   1.398       .  A
C437        H447   1.083       .  S
C438        H448   1.081       .  S
C449        C450   1.406       .  A
C449        C454   1.405       .  A
C450        C451   1.401       .  A
C450        H463   1.083       .  S
C451        C452   1.403       .  A
C451        H464   1.083       .  S
C452        C453   1.405       .  A
C452        C455   1.484       .  S
C453        C454   1.396       .  A
C453        H465   1.083       .  S
C454        H466   1.083       .  S
C455        C456   1.345       .  D
C455        H467   1.087       .  S
C456        C457   1.480       .  S
C456        H468   1.087       .  S
C457        C458   1.401       .  A
C457        C462   1.407       .  A
C458        C459   1.395       .  A
C458        H469   1.083       .  S
C459        C460   1.404       .  A
C459        H470   1.083       .  S
C460        C461   1.406       .  A
C461        C462   1.402       .  A
C461        H471   1.083       .  S
C462        H472   1.083       .  S
C473        C474   1.404       .  A
C473        C478   1.405       .  A
C474        C475   1.395       .  A
C474        H487   1.084       .  S
C475        C476   1.402       .  A
C475        H488   1.084       .  S
C476        C477   1.407       .  A
C476        C479   1.482       .  S
C477        C478   1.403       .  A
C477        H489   1.082       .  S
C478        H490   1.083       .  S
C479        C480   1.349       .  D
C479        H491   1.085       .  S
C480        C481   1.489       .  S
C480        H492   1.086       .  S
C481        C482   1.405       .  A
C481        C486   1.406       .  A
C482        C483   1.403       .  A
C482        H493   1.083       .  S
C483        C484   1.406       .  A
C483        H494   1.083       .  S
C484        C485   1.405       .  A
C485        C486   1.394       .  A
C485        H495   1.083       .  S
C486        H496   1.082       .  S
C497        C498   1.403       .  A
C497        C502   1.406       .  A
C498        C499   1.396       .  A
C498        H511   1.083       .  S
C499        C500   1.403       .  A
C499        H512   1.084       .  S
C500        C501   1.408       .  A
C500        C503   1.486       .  S
C501        C502   1.405       .  A
C501        H513   1.082       .  S
C502        H514   1.083       .  S
C503        C504   1.351   1_455  D
C503        H515   1.085   1_455  S
C504        C505   1.494       .  S
C504        H516   1.086   1_655  S
C505        C506   1.407       .  A
C505        C510   1.407       .  A
C506        C507   1.406       .  A
C506        H517   1.083       .  S
C507        C508   1.406       .  A
C507        H518   1.083       .  S
C508        C509   1.406       .  A
C509        C510   1.396       .  A
C509        H519   1.083       .  S
C510        H520   1.081       .  S
C521        C522   1.407       .  A
C521        C526   1.407   1_565  A
C522        C523   1.396       .  A
C522        H535   1.083       .  S
C523        C524   1.402       .  A
C523        H536   1.083       .  S
C524        C525   1.409   1_565  A
C524        C527   1.488       .  S
C525        C526   1.402       .  A
C525        H537   1.082       .  S
C526        H538   1.083       .  S
C527        C528   1.347   1_565  D
C527        H539   1.085       .  S
C528        C529   1.489       .  S
C528        H540   1.085       .  S
C529        C530   1.403       .  A
C529        C534   1.409   1_545  A
C530        C531   1.398       .  A
C530        H541   1.083       .  S
C531        C532   1.407       .  A
C531        H542   1.083       .  S
C532        C533   1.407   1_545  A
C533        C534   1.401       .  A
C533        H543   1.083       .  S
C534        H544   1.082       .  S
C545        C546   1.406       .  A
C545        C550   1.405   1_565  A
C546        C547   1.399       .  A
C546        H559   1.083       .  S
C547        C548   1.402       .  A
C547        H560   1.083       .  S
C548        C549   1.406   1_565  A
C548        C551   1.481       .  S
C549        C550   1.397       .  A
C549        H561   1.083       .  S
C550        H562   1.083       .  S
C551        C552   1.344   1_565  D
C551        H563   1.086       .  S
C552        C553   1.480   1_545  S
C552        H564   1.087       .  S
C553        C554   1.401   1_565  A
C553        C558   1.406       .  A
C554        C555   1.395       .  A
C554        H565   1.083       .  S
C555        C556   1.405   1_545  A
C555        H566   1.083       .  S
C556        C557   1.406       .  A
C557        C558   1.401       .  A
C557        H567   1.083       .  S
C558        H568   1.083       .  S
C569        C570   1.409       .  A
C569        C574   1.407       .  A
C570        C571   1.394       .  A
C570        H583   1.083       .  S
C571        C572   1.399       .  A
C571        H584   1.083       .  S
C572        C573   1.410       .  A
C572        C575   1.486       .  S
C573        C574   1.407       .  A
C573        H585   1.083       .  S
C574        H586   1.082       .  S
C575        C576   1.343       .  D
C575        H587   1.086       .  S
C576        C577   1.486       .  S
C576        H588   1.086       .  S
C577        C578   1.399       .  A
C577        C582   1.410       .  A
C578        C579   1.394       .  A
C578        H589   1.083       .  S
C579        C580   1.408       .  A
C579        H590   1.083       .  S
C580        C581   1.407       .  A
C581        C582   1.406       .  A
C581        H591   1.082       .  S
C582        H592   1.083       .  S
C593        C594   1.410       .  A
C593        C598   1.407       .  A
C594        C595   1.394       .  A
C594        H607   1.083       .  S
C595        C596   1.398       .  A
C595        H608   1.083       .  S
C596        C597   1.410       .  A
C596        C599   1.487       .  S
C597        C598   1.408       .  A
C597        H609   1.083       .  S
C598        H610   1.082       .  S
C599        C600   1.342       .  D
C599        H611   1.086       .  S
C600        C601   1.486       .  S
C600        H612   1.086       .  S
C601        C602   1.398       .  A
C601        C606   1.409       .  A
C602        C603   1.394       .  A
C602        H613   1.083       .  S
C603        C604   1.409       .  A
C603        H614   1.083       .  S
C604        C605   1.407       .  A
C605        C606   1.407       .  A
C605        H615   1.082       .  S
C606        H616   1.083       .  S
C617        C618   1.406       .  A
C617        C622   1.406   1_465  A
C618        C619   1.399       .  A
C618        H631   1.083       .  S
C619        C620   1.403       .  A
C619        H632   1.083       .  S
C620        C621   1.407   1_465  A
C620        C623   1.487       .  S
C621        C622   1.398       .  A
C621        H633   1.082       .  S
C622        H634   1.083       .  S
C623        C624   1.347   1_465  D
C623        H635   1.086       .  S
C624        C625   1.485       .  S
C624        H636   1.086       .  S
C625        C626   1.402   1_655  A
C625        C630   1.407   1_545  A
C626        C627   1.397       .  A
C626        H637   1.083       .  S
C627        C628   1.407   1_455  A
C627        H638   1.083       .  S
C628        C629   1.407   1_545  A
C629        C630   1.401       .  A
C629        H639   1.083       .  S
C630        H640   1.082       .  S
C641        C642   1.406       .  A
C641        C646   1.406   1_445  A
C642        C643   1.398       .  A
C642        H655   1.083       .  S
C643        C644   1.402       .  A
C643        H656   1.083       .  S
C644        C645   1.406   1_445  A
C644        C647   1.483       .  S
C645        C646   1.400       .  A
C645        H657   1.083       .  S
C646        H658   1.083       .  S
C647        C648   1.346   1_545  D
C647        H659   1.086       .  S
C648        C649   1.484       .  S
C648        H660   1.086       .  S
C649        C650   1.404       .  A
C649        C654   1.406   1_465  A
C650        C651   1.400       .  A
C650        H661   1.083       .  S
C651        C652   1.405       .  A
C651        H662   1.083       .  S
C652        C653   1.405   1_465  A
C653        C654   1.398       .  A
C653        H663   1.083       .  S
C654        H664   1.082       .  S
C665        C666   1.401       .  A
C665        C670   1.404       .  A
C666        C667   1.396       .  A
C666        H679   1.083       .  S
C667        C668   1.403       .  A
C667        H680   1.083       .  S
C668        C669   1.408       .  A
C668        C671   1.484       .  S
C669        C670   1.402       .  A
C669        H681   1.082       .  S
C670        H682   1.083       .  S
C671        C672   1.350       .  D
C671        H683   1.086       .  S
C672        C673   1.488   1_565  S
C672        H684   1.085   1_565  S
C673        C674   1.405       .  A
C673        C678   1.406       .  A
C674        C675   1.404       .  A
C674        H685   1.083       .  S
C675        C676   1.406       .  A
C675        H686   1.083       .  S
C676        C677   1.404       .  A
C677        C678   1.395       .  A
C677        H687   1.083       .  S
C678        H688   1.082   1_545  S
C689        C690   1.403       .  A
C689        C694   1.405       .  A
C690        C691   1.397       .  A
C690        H703   1.083       .  S
C691        C692   1.403       .  A
C691        H704   1.084       .  S
C692        C693   1.407       .  A
C692        C695   1.484       .  S
C693        C694   1.402       .  A
C693        H705   1.082       .  S
C694        H706   1.083       .  S
C695        C696   1.350   1_565  D
C695        H707   1.085       .  S
C696        C697   1.490       .  S
C696        H708   1.086       .  S
C697        C698   1.405       .  A
C697        C702   1.407       .  A
C698        C699   1.403       .  A
C698        H709   1.083       .  S
C699        C700   1.406       .  A
C699        H710   1.083       .  S
C700        C701   1.405       .  A
C701        C702   1.396       .  A
C701        H711   1.083       .  S
C702        H712   1.082       .  S
C713        C714   1.405       .  A
C713        C718   1.405       .  A
C714        C715   1.404       .  A
C714        H727   1.083       .  S
C715        C716   1.408       .  A
C715        H728   1.084       .  S
C716        C717   1.408       .  A
C716        C719   1.495       .  S
C717        C718   1.395       .  A
C717        H729   1.080       .  S
C718        H730   1.084       .  S
C719        C720   1.351       .  D
C719        H731   1.087       .  S
C720        C721   1.485       .  S
C720        H732   1.084       .  S
C721        C722   1.403       .  A
C721        C726   1.408       .  A
C722        C723   1.397       .  A
C722        H733   1.084       .  S
C723        C724   1.404       .  A
C723        H734   1.083       .  S
C724        C725   1.405       .  A
C725        C726   1.403       .  A
C725        H735   1.083       .  S
C726        H736   1.082       .  S
C737        C738   1.408       .  A
C737        C742   1.405       .  A
C738        C739   1.393       .  A
C738        H751   1.083       .  S
C739        C740   1.399       .  A
C739        H752   1.084       .  S
C740        C741   1.413       .  A
C740        C743   1.490       .  S
C741        C742   1.406       .  A
C741        H753   1.081       .  S
C742        H754   1.083       .  S
C743        C744   1.344       .  D
C743        H755   1.086       .  S
C744        C745   1.489       .  S
C744        H756   1.087       .  S
C745        C746   1.399       .  A
C745        C750   1.412       .  A
C746        C747   1.392       .  A
C746        H757   1.084       .  S
C747        C748   1.408       .  A
C747        H758   1.083       .  S
C748        C749   1.406       .  A
C749        C750   1.408       .  A
C749        H759   1.083       .  S
C750        H760   1.081       .  S
