geometry optimzed in LAMMPS
_audit_creation_date              2020-11-30 
_audit_creation_method            'lammps2cif' 
_symmetry_space_group_name_H-M    'P1' 
_symmetry_Int_Tables_number       1 
_symmetry_cell_setting            triclinic 
loop_ 
_symmetry_equiv_pos_as_xyz 
  x,y,z 
_cell_length_a                    42.96939243 
_cell_length_b                    43.07586642498896 
_cell_length_c                    77.97498331576182 
_cell_angle_alpha                 89.8139017188966 
_cell_angle_beta                  89.92621052411964 
_cell_angle_gamma                 89.9622189292379 
loop_ 
_atom_site_label 
_atom_site_type_symbol 
_atom_site_fract_x 
_atom_site_fract_y 
_atom_site_fract_z 
_atom_site_charge 
Fe1        Fe  0.99644379  0.37554150  0.89383548     1.65800
Fe2        Fe  0.45867053  0.37586322  0.93241010     1.73200
Fe3        Fe  0.03867990  0.37721456  0.93104695     1.54400
O4          O  0.05761516  0.34221330  0.91613632    -0.81500
O5          O  0.47296571  0.41120918  0.94833735    -0.79900
O6          O  0.03041002  0.34243291  0.89197239    -0.84100
O7          O  0.02841004  0.41051717  0.89117880    -0.78900
O8          O  0.02613724  0.34373618  0.94894173    -0.80700
O9          O  0.43733899  0.40894093  0.91713885    -0.83400
C10         C  0.05049432  0.42132239  0.90003576     0.97300
C11         C  0.05244225  0.33218466  0.90109955     1.04800
O12         O  0.49795491  0.37621911  0.91913805    -1.12400
O13         O  0.43974313  0.33997810  0.91825660    -0.74800
O14         O  0.46440919  0.34028983  0.89313849    -0.78300
O15         O  0.05685506  0.41101455  0.91491273    -0.79000
C16         C  0.44447389  0.32903506  0.90337843     0.96200
O17         O  0.46227784  0.40867531  0.89222853    -0.77000
O18         O  0.47440307  0.34313922  0.94958663    -0.82200
C19         C  0.49898793  0.42235127  0.95292619     0.98900
C20         C  0.50056213  0.33382460  0.95501977     1.04800
O21         O  0.02490132  0.41234551  0.94738373    -0.77800
C22         C  0.44106435  0.41893458  0.90196965     1.03100
Fe23       Fe  0.24776579  0.12593435  0.85756288     1.65800
Fe24       Fe  0.25029637  0.16729894  0.82035567     1.73200
Fe25       Fe  0.24716385  0.08818347  0.81926870     1.54400
O26         O  0.27678232  0.06482524  0.83586889    -0.81500
O27         O  0.21218943  0.15694349  0.80525112    -0.79900
O28         O  0.28426969  0.09520914  0.85861071    -0.84100
O29         O  0.21550540  0.09041954  0.85877236    -0.78900
O30         O  0.28532777  0.10013223  0.80461802    -0.80700
O31         O  0.22072523  0.18938743  0.83745477    -0.83400
C32         C  0.20106622  0.07371678  0.84803169     0.97300
C33         C  0.29043546  0.07129963  0.84983399     1.04800
O34         O  0.24837916  0.12712617  0.83236897    -1.12400
O35         O  0.28885199  0.18113553  0.83412812    -0.74800
O36         O  0.27968762  0.16145467  0.86005474    -0.78300
O37         O  0.20861513  0.07237194  0.83232697    -0.79000
C38         C  0.29526819  0.17861109  0.84996521     0.96200
O39         O  0.21142379  0.15657535  0.85901725    -0.77000
O40         O  0.28010373  0.15129984  0.80156707    -0.82200
C41         C  0.20518089  0.13209719  0.79741224     0.98900
C42         C  0.29235543  0.12561468  0.79737975     1.04800
O43         O  0.21748568  0.10603706  0.80090727    -0.77800
C44         C  0.20661960  0.18188137  0.85117325     1.03100
Fe45       Fe  0.24957729  0.37638773  0.60867722     1.65800
Fe46       Fe  0.20864868  0.37809085  0.57152973     1.73200
Fe47       Fe  0.28803862  0.37720412  0.57041592     1.54400
O48         O  0.30920394  0.40876796  0.58683333    -0.81500
O49         O  0.22048746  0.34053219  0.55655708    -0.79900
O50         O  0.27840907  0.41427244  0.60964913    -0.84100
O51         O  0.28706136  0.34700204  0.61019035    -0.78900
O52         O  0.27456071  0.41420348  0.55511114    -0.80700
O53         O  0.18753515  0.34770041  0.58865791    -0.83400
C54         C  0.30579633  0.33402717  0.59995474     0.97300
C55         C  0.30218028  0.42190110  0.60091562     1.04800
O56         O  0.24883744  0.37719384  0.58349463    -1.12400
O57         O  0.19324531  0.41600550  0.58533350    -0.74800
O58         O  0.21208085  0.40583575  0.61131967    -0.78300
O59         O  0.30639092  0.34012581  0.58403199    -0.79000
C60         C  0.19434613  0.42092894  0.60135200     0.96200
O61         O  0.22096462  0.33824767  0.60988698    -0.77000
O62         O  0.22355034  0.40839407  0.55265033    -0.82200
C63         C  0.24564778  0.33284521  0.54913755     0.98900
C64         C  0.24874553  0.42143803  0.54823736     1.04800
O65         O  0.27159999  0.34565020  0.55253187    -0.77800
C66         C  0.19562352  0.33308541  0.60211450     1.03100
Fe67       Fe  0.99854106  0.12516486  0.64427372     1.65800
Fe68       Fe  0.99834331  0.08738449  0.68253063     1.73200
Fe69       Fe  0.99966732  0.16645193  0.68132478     1.54400
O70         O  0.03101915  0.18604571  0.66395569    -0.81500
O71         O  0.46088647  0.10125020  0.69699348    -0.79900
O72         O  0.03751715  0.15244073  0.64259938    -0.84100
O73         O  0.47010472  0.16341747  0.64166545    -0.78900
O74         O  0.03689385  0.15371164  0.69640978    -0.80700
O75         O  0.46760294  0.06582736  0.66589955    -0.83400
C76         C  0.45611560  0.18172198  0.65175287     0.97300
C77         C  0.04463380  0.17733363  0.65026149     1.04800
O78         O  0.99886931  0.12636926  0.66942428    -1.12400
O79         O  0.03597105  0.06969564  0.66941326    -0.74800
O80         O  0.02696715  0.08664184  0.64287446    -0.78300
O81         O  0.46211467  0.18321114  0.66764556    -0.79000
C82         C  0.04088745  0.06895142  0.65339084     0.96200
O83         O  0.45938864  0.09786406  0.64383955    -0.77000
O84         O  0.02866991  0.10342996  0.70107047    -0.82200
C85         C  0.45523265  0.12687821  0.70432503     0.98900
C86         C  0.04246653  0.12868919  0.70449455     1.04800
O87         O  0.46882945  0.15208008  0.70028178    -0.77800
C88         C  0.45293079  0.07367402  0.65242507     1.03100
Fe89       Fe  0.25005756  0.13026408  0.39515263     1.65800
Fe90       Fe  0.28956300  0.13008660  0.43278001     1.73200
Fe91       Fe  0.21041679  0.12813728  0.43279292     1.54400
O92         O  0.19308443  0.16620691  0.41981926    -0.81500
O93         O  0.27427467  0.09956162  0.45166447    -0.79900
O94         O  0.21156669  0.15905328  0.39350341    -0.84100
O95         O  0.22267829  0.09126507  0.39388252    -0.78900
O96         O  0.22571416  0.15807679  0.45181072    -0.80700
O97         O  0.30639971  0.09249096  0.41938952    -0.83400
C98         C  0.19813572  0.08401178  0.40200583     0.97300
C99         C  0.19347318  0.17272074  0.40394461     1.04800
O100        O  0.25000650  0.12955771  0.42026550    -1.12400
O101        O  0.31067549  0.16066150  0.41569372    -0.74800
O102        O  0.27759746  0.16926658  0.39419294    -0.78300
O103        O  0.18955658  0.09807236  0.41551330    -0.79000
C104        C  0.30265861  0.17500438  0.40212280     0.96200
O105        O  0.28855607  0.10156939  0.39311373    -0.77000
O106        O  0.27606948  0.16768101  0.44725132    -0.82200
C107        C  0.24934927  0.08468099  0.45475594     0.98900
C108        C  0.25051967  0.17316343  0.45484660     1.04800
O109        O  0.22404427  0.08991526  0.44690809    -0.77800
C110        C  0.30629749  0.08705927  0.40341574     1.03100
Fe111      Fe  0.50063860  0.38135577  0.35847395     1.65800
Fe112      Fe  0.49787558  0.34017931  0.32098604     1.73200
Fe113      Fe  0.49993601  0.41993574  0.31994472     1.54400
O114        O  0.46471921  0.43918690  0.33444377    -0.81500
O115        O  0.03168703  0.35309238  0.30342085    -0.79900
O116        O  0.46805120  0.41632448  0.36007574    -0.84100
O117        O  0.03659897  0.41272518  0.35944604    -0.78900
O118        O  0.46640363  0.40574993  0.30270056    -0.80700
O119        O  0.03278635  0.32048024  0.33567382    -0.83400
C120        C  0.04477672  0.43531053  0.35005097     0.97300
C121        C  0.45591787  0.43585070  0.34987783     1.04800
O122        O  0.49958635  0.38049875  0.33310922    -1.12400
O123        O  0.46360633  0.32234625  0.33697255    -0.74800
O124        O  0.46445119  0.35045157  0.36084156    -0.78300
O125        O  0.03321348  0.44052061  0.33535162    -0.79000
C126        C  0.45294874  0.32907522  0.35170391     0.96200
O127        O  0.03342754  0.34648475  0.36029478    -0.77000
O128        O  0.46291291  0.35430923  0.30453248    -0.82200
C129        C  0.04329958  0.37850772  0.29814439     0.98900
C130        C  0.45424296  0.38017014  0.29833747     1.04800
O131        O  0.03497876  0.40489216  0.30378766    -0.77800
C132        C  0.04359385  0.32522897  0.35056930     1.03100
Fe133      Fe  0.49993347  0.12449660  0.10759629     1.65800
Fe134      Fe  0.03891976  0.12511110  0.06950379     1.73200
Fe135      Fe  0.45954654  0.12551977  0.06998893     1.54400
O136        O  0.43840232  0.09418438  0.08657974    -0.81500
O137        O  0.02611259  0.16326923  0.05506604    -0.79900
O138        O  0.46991545  0.08750468  0.10891215    -0.84100
O139        O  0.46375814  0.15586437  0.10982639    -0.78900
O140        O  0.47192435  0.08850766  0.05476085    -0.80700
O141        O  0.06084265  0.15525965  0.08630795    -0.83400
C142        C  0.44545574  0.16981772  0.09962769     0.97300
C143        C  0.44595245  0.08028372  0.10035480     1.04800
O144        O  0.49945757  0.12505407  0.08235474    -1.12400
O145        O  0.05558434  0.08689974  0.08271363    -0.74800
O146        O  0.03606771  0.09309690  0.10897714    -0.78300
O147        O  0.44303392  0.16265268  0.08391281    -0.79000
C148        C  0.05420131  0.07970191  0.09849928     0.96200
O149        O  0.03026220  0.16125910  0.10900235    -0.77000
O150        O  0.02275941  0.09521791  0.05068139    -0.82200
C151        C  0.50053299  0.17023975  0.04789235     1.03700
C152        C  0.49706956  0.08230267  0.04696432     1.04800
O153        O  0.47505409  0.15679868  0.05156658    -0.77800
C154        C  0.05434548  0.16835202  0.10042881     1.03100
Fe155      Fe  0.24775791  0.37554068  0.14410319     1.65800
Fe156      Fe  0.24889574  0.41541660  0.18182203     1.73200
Fe157      Fe  0.25038103  0.33595166  0.18213530     1.54400
O158        O  0.21635591  0.31569286  0.16703051    -0.81500
O159        O  0.28722585  0.40327953  0.19634308    -0.79900
O160        O  0.21135002  0.34464766  0.14345992    -0.84100
O161        O  0.27944945  0.34025476  0.14162242    -0.78900
O162        O  0.21535990  0.34876787  0.19891167    -0.80700
O163        O  0.27868238  0.43710855  0.16470683    -0.83400
C164        C  0.29286487  0.32082521  0.15127913     0.97300
C165        C  0.20290125  0.32222174  0.15295363     1.04800
O166        O  0.24906892  0.37557767  0.16938726    -1.12400
O167        O  0.21035707  0.43135209  0.16869507    -0.74800
O168        O  0.21557409  0.41088483  0.14276788    -0.78300
O169        O  0.28567093  0.31783474  0.16700568    -0.79000
C170        C  0.20211254  0.42912766  0.15313975     0.96200
O171        O  0.28432122  0.40619395  0.14204385    -0.77000
O172        O  0.21915703  0.40005747  0.20082653    -0.82200
C173        C  0.29653703  0.37765953  0.20262111     0.98900
C174        C  0.20765919  0.37441185  0.20566509     1.04800
O175        O  0.28421726  0.35169181  0.19890740    -0.77800
C176        C  0.29153919  0.43007511  0.15059733     1.03100
C177        C  0.13263555  0.29104207  0.12878456    -0.22300
C178        C  0.13560076  0.25916893  0.13199232     0.09600
C179        C  0.15885971  0.24847452  0.14332387     0.10000
C180        C  0.17964747  0.26983895  0.15052633    -0.17300
C181        C  0.17745734  0.30176239  0.14690730    -0.27700
C182        C  0.15256246  0.31261890  0.13653269     0.18400
C183        C  0.11414079  0.23731417  0.12337094     0.12300
C184        C  0.16172864  0.21454765  0.14785697    -0.12000
H185        H  0.19831536  0.26137999  0.15863074     0.12600
C186        C  0.14531289  0.34657786  0.13385581    -0.22900
H187        H  0.11427895  0.29919252  0.12036246     0.08300
C188        C  0.08269787  0.23467787  0.12828299     0.04600
C189        C  0.06383528  0.21247551  0.12029790    -0.20100
C190        C  0.07550125  0.19268585  0.10744025    -0.12400
C191        C  0.10714631  0.19590427  0.10235072     0.13300
C192        C  0.12585383  0.21830879  0.11034271    -0.22800
C193        C  0.06919446  0.25471536  0.14225185    -0.05900
H194        H  0.03981334  0.21042540  0.12432985     0.14800
C195        C  0.12201789  0.17537862  0.08902490    -0.16100
H196        H  0.15005895  0.22073231  0.10663005     0.09200
H197        H  0.12042768  0.35088219  0.13691321     0.07000
H198        H  0.14955701  0.35303764  0.12025810     0.08200
H199        H  0.15882759  0.36213086  0.14230368     0.07300
H200        H  0.16712908  0.20080464  0.13622053     0.02100
H201        H  0.13952968  0.20618803  0.15352288     0.02600
H202        H  0.18056776  0.21035173  0.15732730     0.06100
H203        H  0.04443989  0.24894837  0.14486154     0.05100
H204        H  0.07028968  0.27951202  0.13841619    -0.00700
H205        H  0.08253286  0.25129793  0.15429811     0.00800
H206        H  0.14714186  0.18061484  0.08730723     0.04500
H207        H  0.11058908  0.17893381  0.07641541     0.06400
H208        H  0.12011864  0.15073200  0.09304057     0.07300
C209        C  0.41351438  0.23651344  0.12632197    -0.22300
C210        C  0.38220990  0.23601106  0.12143301     0.09600
C211        C  0.37216941  0.21517660  0.10869226     0.10000
C212        C  0.39367426  0.19457316  0.10140718    -0.17300
C213        C  0.42500784  0.19441803  0.10654278    -0.27700
C214        C  0.43522953  0.21633284  0.11886301     0.18400
C215        C  0.36038123  0.25797691  0.12959174     0.12300
C216        C  0.33868339  0.21441078  0.10300547    -0.12000
H217        H  0.38577673  0.17790116  0.09198442     0.12600
C218        C  0.46882030  0.22009465  0.12401795    -0.22900
H219        H  0.42112323  0.25310791  0.13586834     0.08300
C220        C  0.34510660  0.25068122  0.14506859     0.04600
C221        C  0.32375645  0.27188953  0.15199390    -0.20100
C222        C  0.31715967  0.30025517  0.14373560    -0.12400
C223        C  0.33328657  0.30768292  0.12828057     0.13300
C224        C  0.35471317  0.28640166  0.12151128    -0.22800
C225        C  0.35114278  0.22034326  0.15413339    -0.05900
H226        H  0.31167181  0.26589127  0.16375114     0.14800
C227        C  0.32861245  0.33790268  0.11878191    -0.16100
H228        H  0.36689357  0.29171557  0.10967083     0.09200
H229        H  0.47170581  0.21353646  0.13770630     0.07000
H230        H  0.47584822  0.24473213  0.12235690     0.08200
H231        H  0.48498612  0.20620788  0.11611242     0.07300
H232        H  0.33202489  0.23732202  0.09757539     0.02100
H233        H  0.32341349  0.20903544  0.11411828     0.02600
H234        H  0.33469204  0.19651593  0.09302443     0.06100
H235        H  0.33716227  0.21815980  0.16606567     0.05100
H236        H  0.37612861  0.21867105  0.15762563    -0.00700
H237        H  0.34503704  0.20070831  0.14558877     0.00800
H238        H  0.34506374  0.34044466  0.10786586     0.04500
H239        H  0.33252790  0.35769179  0.12756611     0.06400
H240        H  0.30474464  0.33901926  0.11340419     0.07300
C241        C  0.38651977  0.01493410  0.10443062    -0.22300
C242        C  0.38206762  0.01437392  0.12221649     0.09600
C243        C  0.40000849  0.03381010  0.13279286     0.10000
C244        C  0.42120752  0.05445534  0.12523948    -0.17300
C245        C  0.42526058  0.05579419  0.10734010    -0.27700
C246        C  0.40844740  0.03483824  0.09683886     0.18400
C247        C  0.35855441  0.49301251  0.12942235     0.12300
C248        C  0.39654796  0.03290807  0.15202172    -0.12000
H249        H  0.43419798  0.07014899  0.13337437     0.12600
C250        C  0.41381915  0.03158416  0.07780796    -0.22900
H251        H  0.37316995  0.49924617  0.09633601     0.08300
C252        C  0.32729534  0.50218208  0.13161325     0.04600
C253        C  0.30601735  0.48115276  0.13879673    -0.20100
C254        C  0.31532029  0.45115830  0.14363651    -0.12400
C255        C  0.34674762  0.44210165  0.14158244     0.13300
C256        C  0.36797627  0.46319718  0.13442111    -0.22800
C257        C  0.31664881  0.03409016  0.12645875    -0.05900
H258        H  0.28189908  0.48796875  0.14044133     0.14800
C259        C  0.35891977  0.41089870  0.14724595    -0.16100
H260        H  0.39213364  0.45645897  0.13285291     0.09200
H261        H  0.39277628  0.03931146  0.07073279     0.07000
H262        H  0.41833560  0.00682360  0.07473509     0.08200
H263        H  0.43425108  0.04467428  0.07308901     0.07300
H264        H  0.40219249  0.00929495  0.15685192     0.02100
H265        H  0.37227672  0.03879085  0.15566223     0.02600
H266        H  0.41235815  0.04966457  0.15839945     0.06100
H267        H  0.29144735  0.03748028  0.12903679     0.05100
H268        H  0.32069411  0.03750569  0.11251458    -0.00700
H269        H  0.32974020  0.05198479  0.13368075     0.00800
H270        H  0.36900737  0.39857383  0.13606103     0.04500
H271        H  0.34078941  0.39592062  0.15307465     0.06400
H272        H  0.37748320  0.41425279  0.15695787     0.07300
C273        C  0.14402750  0.49516918  0.14591852    -0.22300
C274        C  0.13094708  0.48621473  0.13027459     0.09600
C275        C  0.13958369  0.45783473  0.12278271     0.10000
C276        C  0.16174729  0.43916021  0.13100482    -0.17300
C277        C  0.17610009  0.44849204  0.14640637    -0.27700
C278        C  0.16663132  0.47683701  0.15409576     0.18400
C279        C  0.11047025  0.00835906  0.12126114     0.12300
C280        C  0.12607132  0.44773015  0.10587405    -0.12000
H281        H  0.16846327  0.41745587  0.12506067     0.12600
C282        C  0.18096453  0.48887238  0.17041588    -0.22900
H283        H  0.13720676  0.51722143  0.15144273     0.08300
C284        C  0.07815050  0.00928460  0.12419277     0.04600
C285        C  0.06031494  0.03234521  0.11610671    -0.20100
C286        C  0.07415558  0.05460998  0.10528543    -0.12400
C287        C  0.10672431  0.05353019  0.10240005     0.13300
C288        C  0.12430706  0.03010199  0.11027736    -0.22800
C289        C  0.06264251  0.48605321  0.13581002    -0.05900
H290        H  0.03544631  0.03330030  0.11843170     0.14800
C291        C  0.12428418  0.07743783  0.09205189    -0.16100
H292        H  0.14929646  0.02940687  0.10831152     0.09200
H293        H  0.17138286  0.51189208  0.17404790     0.07000
H294        H  0.20648189  0.49159499  0.16872049     0.08200
H295        H  0.17603664  0.47263972  0.18116272     0.07300
H296        H  0.13148002  0.96472649  0.09588615     0.02100
H297        H  0.10041049  0.44564750  0.10696981     0.02600
H298        H  0.13545445  0.42489983  0.10175974     0.06100
H299        H  0.03713448  0.48999141  0.13662538     0.05100
H300        H  0.07247948  0.48804135  0.14891894    -0.00700
H301        H  0.06658512  0.46215128  0.13100653     0.00800
H302        H  0.14239959  0.08827264  0.10022799     0.04500
H303        H  0.10955337  0.09642573  0.08707855     0.06400
H304        H  0.13583716  0.06598152  0.08100973     0.07300
C305        C  0.08671097  0.39102035  0.25619657    -0.22300
C306        C  0.11389330  0.37387482  0.25914268     0.09600
C307        C  0.11772223  0.35796542  0.27484662     0.10000
C308        C  0.09423173  0.35977088  0.28736397    -0.17300
C309        C  0.06713862  0.37727092  0.28451852    -0.27700
C310        C  0.06306142  0.39262896  0.26857848     0.18400
C311        C  0.13808606  0.37313028  0.24558216     0.12300
C312        C  0.14650652  0.33901264  0.27830848    -0.12000
H313        H  0.09711688  0.34771669  0.29948629     0.12600
C314        C  0.03368320  0.40982648  0.26384079    -0.22900
H315        H  0.08374845  0.40289030  0.24401909     0.08300
C316        C  0.13614851  0.35256295  0.23159082     0.04600
C317        C  0.15933134  0.35325817  0.21887323    -0.20100
C318        C  0.18416417  0.37444402  0.21966942    -0.12400
C319        C  0.18614785  0.39487600  0.23388415     0.13300
C320        C  0.16305777  0.39386798  0.24663916    -0.22800
C321        C  0.10959334  0.32993463  0.23011115    -0.05900
H322        H  0.15774913  0.33752970  0.20808654     0.14800
C323        C  0.21289693  0.41718062  0.23604945    -0.16100
H324        H  0.16434468  0.40946103  0.25750116     0.09200
H325        H  0.02384262  0.39973510  0.25193389     0.07000
H326        H  0.03917339  0.43465637  0.26147661     0.08200
H327        H  0.01531393  0.40846827  0.27377984     0.07300
H328        H  0.16738035  0.35415568  0.27776889     0.02100
H329        H  0.14874433  0.32048513  0.26851735     0.02600
H330        H  0.14570728  0.32783338  0.29115770     0.06100
H331        H  0.11171570  0.31529892  0.21846619     0.05100
H332        H  0.08721432  0.34275480  0.22936385    -0.00700
H333        H  0.10922672  0.31439392  0.24149617     0.00800
H334        H  0.21244464  0.43500177  0.22575109     0.04500
H335        H  0.23530515  0.40433102  0.23566678     0.06400
H336        H  0.21164964  0.42962119  0.24848840     0.07300
C337        C  0.38466323  0.40169373  0.27028454    -0.22300
C338        C  0.38806950  0.38027643  0.25691953     0.09600
C339        C  0.41259767  0.35855572  0.25744648     0.10000
C340        C  0.43328244  0.35874957  0.27135644    -0.17300
C341        C  0.43011810  0.38023438  0.28477347    -0.27700
C342        C  0.40514378  0.40179364  0.28432827     0.18400
C343        C  0.36466829  0.37972140  0.24296432     0.12300
C344        C  0.41689285  0.33518678  0.24330669    -0.12000
H345        H  0.45243078  0.34235141  0.27160387     0.12600
C346        C  0.39840183  0.42427246  0.29865555    -0.22900
H347        H  0.36540333  0.41796638  0.26994881     0.08300
C348        C  0.33718245  0.36211819  0.24459892     0.04600
C349        C  0.31597950  0.36136476  0.23096341    -0.20100
C350        C  0.32139533  0.37802944  0.21573697    -0.12400
C351        C  0.34925758  0.39539803  0.21399945     0.13300
C352        C  0.37043473  0.39616555  0.22773436    -0.22800
C353        C  0.33017007  0.34425616  0.26079260    -0.05900
H354        H  0.29461213  0.34821126  0.23235702     0.14800
C355        C  0.35807787  0.41235091  0.19775259    -0.16100
H356        H  0.39184182  0.40929392  0.22646626     0.09200
H357        H  0.37409975  0.42094816  0.30316626     0.07000
H358        H  0.40100988  0.44843417  0.29386698     0.08200
H359        H  0.41360924  0.42107572  0.30996415     0.07300
H360        H  0.42067578  0.34742674  0.23092762     0.02100
H361        H  0.39586443  0.32035500  0.24228946     0.02600
H362        H  0.43723635  0.31985841  0.24569308     0.06100
H363        H  0.30767886  0.33166459  0.25993808     0.05100
H364        H  0.32881432  0.36047004  0.27180626    -0.00700
H365        H  0.34881700  0.32695308  0.26322030     0.00800
H366        H  0.35967376  0.43762839  0.20034135     0.04500
H367        H  0.34145014  0.40866782  0.18712762     0.06400
H368        H  0.38111950  0.40397121  0.19324623     0.07300
C369        C  0.11475120  0.29416143  0.37411407    -0.22300
C370        C  0.11022506  0.26210841  0.37248361     0.09600
C371        C  0.08503282  0.25094952  0.36269367     0.10000
C372        C  0.06431464  0.27219403  0.35516451    -0.17300
C373        C  0.06824010  0.30435661  0.35717846    -0.27700
C374        C  0.09443532  0.31548139  0.36633568     0.18400
C375        C  0.13234447  0.24056619  0.38096036     0.12300
C376        C  0.08005890  0.21663796  0.36020281    -0.12000
H377        H  0.04444181  0.26362098  0.34806054     0.12600
C378        C  0.10245514  0.34946999  0.36765432    -0.22900
H379        H  0.13454085  0.30259986  0.38134554     0.08300
C380        C  0.16181009  0.23428000  0.37383188     0.04600
C381        C  0.18138977  0.21268288  0.38190383    -0.20100
C382        C  0.17229609  0.19706038  0.39698802    -0.12400
C383        C  0.14278620  0.20390684  0.40428537     0.13300
C384        C  0.12328679  0.22563981  0.39615468    -0.22800
C385        C  0.17230818  0.24984371  0.35749029    -0.05900
H386        H  0.20393320  0.20780084  0.37626904     0.14800
C387        C  0.13100730  0.18776069  0.42020120    -0.16100
H388        H  0.10056227  0.23073095  0.40151341     0.09200
H389        H  0.12661310  0.35321424  0.36300713     0.07000
H390        H  0.10095636  0.35694959  0.38124152     0.08200
H391        H  0.08723865  0.36454533  0.35977842     0.07300
H392        H  0.07611585  0.20518749  0.37278861     0.02100
H393        H  0.10087988  0.20628398  0.35399976     0.02600
H394        H  0.05956457  0.21188115  0.35195514     0.06100
H395        H  0.19578516  0.24183911  0.35347964     0.05100
H396        H  0.17333176  0.27535406  0.35934734    -0.00700
H397        H  0.15571136  0.24449368  0.34700654     0.00800
H398        H  0.10690863  0.19499749  0.42347479     0.04500
H399        H  0.14601191  0.19360575  0.43130288     0.06400
H400        H  0.13084735  0.16225089  0.41819321     0.07300
C401        C  0.38226046  0.27609624  0.35677448    -0.22300
C402        C  0.38343499  0.26983802  0.37440387     0.09600
C403        C  0.40557339  0.28508444  0.38467197     0.10000
C404        C  0.42719913  0.30505383  0.37690853    -0.17300
C405        C  0.42706457  0.31046201  0.35908884    -0.27700
C406        C  0.40319409  0.29689010  0.34902290     0.18400
C407        C  0.36227818  0.24609534  0.38171270     0.12300
C408        C  0.40646633  0.28010186  0.40380143    -0.12000
H409        H  0.44492364  0.31578346  0.38478947     0.12600
C410        C  0.39807395  0.30450590  0.33034243    -0.22900
H411        H  0.36468246  0.26480788  0.34901946     0.08300
C412        C  0.33071864  0.25247414  0.38525509     0.04600
C413        C  0.31168681  0.22875692  0.39186776    -0.20100
C414        C  0.32365090  0.19895324  0.39509261    -0.12400
C415        C  0.35525690  0.19253886  0.39129007     0.13300
C416        C  0.37418370  0.21634083  0.38482790    -0.22800
C417        C  0.31734672  0.28435617  0.38228606    -0.05900
H418        H  0.28745181  0.23354959  0.39471021     0.14800
C419        C  0.36960570  0.16069942  0.39310362    -0.16100
H420        H  0.39837548  0.21150472  0.38186759     0.09200
H421        H  0.37340234  0.31134669  0.32837292     0.07000
H422        H  0.40308787  0.28374101  0.32240650     0.08200
H423        H  0.41225405  0.32424831  0.32570856     0.07300
H424        H  0.41119493  0.25531548  0.40672563     0.02100
H425        H  0.38373393  0.28678826  0.40948909     0.02600
H426        H  0.42489192  0.29426028  0.40997028     0.06100
H427        H  0.29239638  0.28552131  0.38597259     0.05100
H428        H  0.31928373  0.29064166  0.36851142    -0.00700
H429        H  0.33029452  0.30161098  0.39005187     0.00800
H430        H  0.37969409  0.15352415  0.38060762     0.04500
H431        H  0.35277732  0.14249458  0.39689565     0.06400
H432        H  0.38848737  0.16143101  0.40279944     0.07300
C433        C  0.37601735  0.03381607  0.39550159    -0.22300
C434        C  0.36736190  0.02006504  0.37999341     0.09600
C435        C  0.33842467  0.02732052  0.37255520     0.10000
C436        C  0.31882550  0.04869551  0.38072262    -0.17300
C437        C  0.32745793  0.06307110  0.39620275    -0.27700
C438        C  0.35652621  0.05529450  0.40374027     0.18400
C439        C  0.38936531  0.99859654  0.37156856     0.12300
C440        C  0.32850121  0.01284342  0.35586968    -0.12000
H441        H  0.29663864  0.05432104  0.37488693     0.12600
C442        C  0.36787288  0.07013051  0.42006337    -0.22900
H443        H  0.39840959  0.02797111  0.40103834     0.08300
C444        C  0.41372182  0.00976939  0.36111350     0.04600
C445        C  0.43416950  0.48844330  0.35354839    -0.20100
C446        C  0.43129319  0.45641185  0.35653408    -0.12400
C447        C  0.40632476  0.44522856  0.36671822     0.13300
C448        C  0.38581822  0.46653311  0.37425989    -0.22800
C449        C  0.41804490  0.04404703  0.35804976    -0.05900
H450        H  0.45325182  0.49698616  0.34574918     0.14800
C451        C  0.39991041  0.41114793  0.36950785    -0.16100
H452        H  0.36683048  0.45815975  0.38219500     0.09200
H453        H  0.36848983  0.09575840  0.41852390     0.07000
H454        H  0.39172728  0.06231716  0.42346592     0.08200
H455        H  0.35235288  0.06370648  0.43089126     0.07300
H456        H  0.32707343  0.48690061  0.35751523     0.02100
H457        H  0.34556641  0.01868680  0.34565600     0.02600
H458        H  0.30525502  0.02127041  0.35172260     0.06100
H459        H  0.43818755  0.04881520  0.34949824     0.05100
H460        H  0.42220883  0.05599147  0.37042925    -0.00700
H461        H  0.39685924  0.05385842  0.35195390     0.00800
H462        H  0.40277891  0.40532941  0.38329775     0.04500
H463        H  0.41514066  0.39577827  0.36184457     0.06400
H464        H  0.37560384  0.40591121  0.36565810     0.07300
C465        C  0.13862504  0.01898882  0.39708544    -0.22300
C466        C  0.13566237  0.01815220  0.37921271     0.09600
C467        C  0.15430649  0.03760590  0.36892937     0.10000
C468        C  0.17518751  0.05804108  0.37680597    -0.17300
C469        C  0.17791479  0.05949624  0.39476473    -0.27700
C470        C  0.15997428  0.03892416  0.40503717     0.18400
C471        C  0.11283585  0.99668356  0.37150886     0.12300
C472        C  0.15195811  0.03692770  0.34965838    -0.12000
H473        H  0.18886366  0.07360099  0.36886263     0.12600
C474        C  0.16338026  0.03620985  0.42423902    -0.22900
H475        H  0.12446065  0.50354873  0.40484300     0.08300
C476        C  0.11991100  0.46514273  0.36877164     0.04600
C477        C  0.09739435  0.44564947  0.36148708    -0.20100
C478        C  0.06797175  0.45709717  0.35691184    -0.12400
C479        C  0.06064337  0.48867556  0.35998006     0.13300
C480        C  0.08335700  0.50815444  0.36702902    -0.22800
C481        C  0.15126945  0.45214002  0.37356157    -0.05900
H482        H  0.10273764  0.42138001  0.35935566     0.14800
C483        C  0.02882044  0.50235525  0.35678180    -0.16100
H484        H  0.07790557  0.53235537  0.36939100     0.09200
H485        H  0.16721554  0.01150080  0.42777164     0.07000
H486        H  0.14176348  0.04445028  0.43057877     0.08200
H487        H  0.18349513  0.04915402  0.42938512     0.07300
H488        H  0.12801024  0.04330431  0.34564386     0.02100
H489        H  0.15744766  0.01326110  0.34493160     0.02600
H490        H  0.16840604  0.05347692  0.34352869     0.06100
H491        H  0.15310128  0.42704823  0.37047461     0.05100
H492        H  0.15516844  0.45492675  0.38754259    -0.00700
H493        H  0.16984966  0.96456908  0.36649286     0.00800
H494        H  0.01949702  0.51204211  0.36893281     0.04500
H495        H  0.01167305  0.48523364  0.35208310     0.06400
H496        H  0.03062996  0.52136513  0.34718547     0.07300
C497        C  0.22203602  0.48029887  0.51411170    -0.22300
C498        C  0.25058422  0.48952779  0.50716490     0.09600
C499        C  0.27835402  0.47684568  0.51373753     0.10000
C500        C  0.27692715  0.45512290  0.52719101    -0.17300
C501        C  0.24829324  0.44541432  0.53425880    -0.27700
C502        C  0.22033052  0.45833114  0.52743909     0.18400
C503        C  0.25071649  0.01328112  0.49336504     0.12300
C504        C  0.30948150  0.48592845  0.50636861    -0.12000
H505        H  0.29846844  0.44544172  0.53205144     0.12600
C506        C  0.18843735  0.44960903  0.53396025    -0.22900
H507        H  0.20087754  0.49044775  0.50900048     0.08300
C508        C  0.24231081  0.00622560  0.47631266     0.04600
C509        C  0.24183255  0.03005767  0.46395288    -0.20100
C510        C  0.24976563  0.06065603  0.46828022    -0.12400
C511        C  0.25777986  0.06771849  0.48544370     0.13300
C512        C  0.25830662  0.04386766  0.49771496    -0.22800
C513        C  0.23442231  0.47357712  0.47119737    -0.05900
H514        H  0.23556461  0.02476555  0.45081920     0.14800
C515        C  0.26469982  0.10022356  0.49149265    -0.16100
H516        H  0.26419553  0.04926212  0.51089326     0.09200
H517        H  0.18384220  0.42468242  0.53145459     0.07000
H518        H  0.16972964  0.46307139  0.52750840     0.08200
H519        H  0.18676236  0.45442808  0.54787463     0.07300
H520        H  0.31332528  0.01113027  0.50805812     0.02100
H521        H  0.31012629  0.48036624  0.49247685     0.02600
H522        H  0.32890515  0.47338095  0.51273119     0.06100
H523        H  0.22905378  0.47194699  0.45729823     0.05100
H524        H  0.21372699  0.46544150  0.47845256    -0.00700
H525        H  0.25439628  0.45799781  0.47398587     0.00800
H526        H  0.24825613  0.10652227  0.50191953     0.04500
H527        H  0.26231510  0.11802058  0.48131338     0.06400
H528        H  0.28880786  0.10124545  0.49656212     0.07300
C529        C  0.26178110  0.24809068  0.47991565    -0.22300
C530        C  0.24843917  0.23983475  0.49569145     0.09600
C531        C  0.23536947  0.21008609  0.49785610     0.10000
C532        C  0.23605038  0.18910048  0.48415341    -0.17300
C533        C  0.24965598  0.19711411  0.46835432    -0.27700
C534        C  0.26235199  0.22722690  0.46612070     0.18400
C535        C  0.24777926  0.26297973  0.50967603     0.12300
C536        C  0.22103974  0.20042537  0.51468513    -0.12000
H537        H  0.22630865  0.16608595  0.48586800     0.12600
C538        C  0.27545753  0.23874478  0.44930725    -0.22900
H539        H  0.27139694  0.27118691  0.47828614     0.08300
C540        C  0.27349285  0.26734025  0.52058851     0.04600
C541        C  0.27185487  0.28983795  0.53353793    -0.20100
C542        C  0.24504249  0.30815285  0.53585093    -0.12400
C543        C  0.21916539  0.30354109  0.52482756     0.13300
C544        C  0.22095060  0.28095469  0.51191379    -0.22800
C545        C  0.30262277  0.24823711  0.51852515    -0.05900
H546        H  0.29170725  0.29316650  0.54189397     0.14800
C547        C  0.19003001  0.32296306  0.52604708    -0.16100
H548        H  0.20139060  0.27739904  0.50337341     0.09200
H549        H  0.30055343  0.24414624  0.45087331     0.07000
H550        H  0.26305363  0.26025955  0.44540440     0.08200
H551        H  0.27284304  0.22201631  0.43866737     0.07300
H552        H  0.20121178  0.21594864  0.51780904     0.02100
H553        H  0.23869351  0.20191642  0.52503361     0.02600
H554        H  0.21222963  0.17620226  0.51427084     0.06100
H555        H  0.32050755  0.25440291  0.52820286     0.05100
H556        H  0.31271507  0.25219314  0.50558923    -0.00700
H557        H  0.29700884  0.22322529  0.52005477     0.00800
H558        H  0.17318754  0.31728756  0.51572803     0.04500
H559        H  0.19599439  0.34795702  0.52482380     0.06400
H560        H  0.17818430  0.31862653  0.53847768     0.07300
C561        C  0.12428353  0.29270207  0.62020873    -0.22300
C562        C  0.13574841  0.26260048  0.62269707     0.09600
C563        C  0.16677387  0.25557046  0.61826778     0.10000
C564        C  0.18593288  0.27916202  0.61167380    -0.17300
C565        C  0.17447210  0.30936287  0.60914683    -0.27700
C566        C  0.14326176  0.31630972  0.61359501     0.18400
C567        C  0.11452019  0.23896954  0.62995108     0.12300
C568        C  0.17948001  0.22320687  0.62040057    -0.12000
H569        H  0.20984133  0.27395928  0.60826552     0.12600
C570        C  0.12939553  0.34842279  0.61221575    -0.22900
H571        H  0.10040178  0.29790439  0.62369919     0.08300
C572        C  0.11078590  0.23534103  0.64780466     0.04600
C573        C  0.08825409  0.21461422  0.65407233    -0.20100
C574        C  0.06946200  0.19730457  0.64287166    -0.12400
C575        C  0.07379537  0.20066512  0.62488729     0.13300
C576        C  0.09627797  0.22151884  0.61871545    -0.22800
C577        C  0.13033396  0.25365853  0.66019473    -0.05900
H578        H  0.08517121  0.21205770  0.66780320     0.14800
C579        C  0.05402943  0.18357076  0.61203198    -0.16100
H580        H  0.09927752  0.22476294  0.60501852     0.09200
H581        H  0.12068609  0.35577826  0.62499078     0.07000
H582        H  0.10958351  0.34807052  0.60309205     0.08200
H583        H  0.14616180  0.36626516  0.60786683     0.07300
H584        H  0.16571363  0.20679193  0.61251052     0.02100
H585        H  0.17805512  0.21605521  0.63406442     0.02600
H586        H  0.20419201  0.22167726  0.61628984     0.06100
H587        H  0.12451725  0.24800567  0.67373138     0.05100
H588        H  0.12641176  0.27888389  0.65818343    -0.00700
H589        H  0.15533430  0.24835523  0.65811728     0.00800
H590        H  0.05948975  0.19063970  0.59864986     0.04500
H591        H  0.02902840  0.18859412  0.61436914     0.06400
H592        H  0.05833626  0.15822631  0.61300835     0.07300
C593        C  0.38096835  0.22477862  0.64190379    -0.22300
C594        C  0.39091021  0.24415261  0.62849352     0.09600
C595        C  0.42215874  0.24321840  0.62301191     0.10000
C596        C  0.44270410  0.22228155  0.63082414    -0.17300
C597        C  0.43291136  0.20290693  0.64428894    -0.27700
C598        C  0.40159601  0.20401102  0.64989303     0.18400
C599        C  0.36869373  0.26651512  0.62096465     0.12300
C600        C  0.43395879  0.26479994  0.60921124    -0.12000
H601        H  0.46676118  0.22140089  0.62662129     0.12600
C602        C  0.38889039  0.18313858  0.66379542    -0.22900
H603        H  0.35693295  0.22583398  0.64612178     0.08300
C604        C  0.35178403  0.25981874  0.60592247     0.04600
C605        C  0.33182192  0.28249343  0.59903968    -0.20100
C606        C  0.32794970  0.31127741  0.60716308    -0.12400
C607        C  0.34497958  0.31782434  0.62228768     0.13300
C608        C  0.36520216  0.29532093  0.62894371    -0.22800
C609        C  0.35447272  0.22864371  0.59735071    -0.05900
H610        H  0.31867100  0.27750953  0.58751761     0.14800
C611        C  0.34278410  0.34881817  0.63119522    -0.16100
H612        H  0.37852872  0.30020450  0.64042222     0.09200
H613        H  0.36920956  0.16936338  0.65861785     0.07000
H614        H  0.38028091  0.19749361  0.67461172     0.08200
H615        H  0.40626947  0.16649869  0.66886552     0.07300
H616        H  0.43066229  0.28925643  0.61328600     0.02100
H617        H  0.42104700  0.26089605  0.59710325     0.02600
H618        H  0.45911217  0.26115997  0.60659614     0.06100
H619        H  0.33945510  0.22715681  0.58579936     0.05100
H620        H  0.34725311  0.21011055  0.60644734    -0.00700
H621        H  0.37887112  0.22441039  0.59332455     0.00800
H622        H  0.31907827  0.35222187  0.63651281     0.04500
H623        H  0.34823389  0.36780351  0.62200132     0.06400
H624        H  0.35939878  0.35050265  0.64205413     0.07300
C625        C  0.36195884  0.48703469  0.60575842    -0.22300
C626        C  0.36313240  0.48955795  0.62364359     0.09600
C627        C  0.34356862  0.47101856  0.63391043     0.10000
C628        C  0.32387856  0.44947599  0.62603778    -0.17300
C629        C  0.32302748  0.44611854  0.60808202    -0.27700
C630        C  0.34212234  0.46556656  0.59777969     0.18400
C631        C  0.38597825  0.01090758  0.63135887     0.12300
C632        C  0.34343837  0.47402750  0.65316938    -0.12000
H633        H  0.30939608  0.43478648  0.63404795     0.12600
C634        C  0.34143797  0.46445285  0.57845850    -0.22900
H635        H  0.37699336  0.50169418  0.59803928     0.08300
C636        C  0.41554766  0.50038826  0.63649401     0.04600
C637        C  0.43658213  0.02138890  0.64373945    -0.20100
C638        C  0.42861092  0.05271421  0.64596491    -0.12400
C639        C  0.39862042  0.06318676  0.64111962     0.13300
C640        C  0.37768103  0.04204641  0.63380417    -0.22800
C641        C  0.42543269  0.46720736  0.63367298    -0.05900
H642        H  0.45961906  0.01348727  0.64737341     0.14800
C643        C  0.38754619  0.09602670  0.64392074    -0.16100
H644        H  0.35464191  0.04982524  0.63008708     0.09200
H645        H  0.35035996  0.44176350  0.57389007     0.07000
H646        H  0.35628912  0.48279098  0.57264801     0.08200
H647        H  0.31727677  0.46807122  0.57381863     0.07300
H648        H  0.33748629  0.99731534  0.65693555     0.02100
H649        H  0.36686307  0.46879510  0.65839647     0.02600
H650        H  0.32657744  0.45784404  0.65925566     0.06100
H651        H  0.44956116  0.46296794  0.63821328     0.05100
H652        H  0.42450961  0.46173445  0.61977939    -0.00700
H653        H  0.40971858  0.45119542  0.64071233     0.00800
H654        H  0.38236004  0.10707149  0.63135945     0.04500
H655        H  0.40461379  0.11064895  0.65079666     0.06400
H656        H  0.36595478  0.09570491  0.65176228     0.07300
C657        C  0.07934862  0.00769539  0.62575680    -0.22300
C658        C  0.10928298  0.00706047  0.63275896     0.09600
C659        C  0.11661280  0.02618207  0.64683008     0.10000
C660        C  0.09352779  0.04564838  0.65365370    -0.17300
C661        C  0.06355570  0.04657669  0.64652145    -0.27700
C662        C  0.05620358  0.02692974  0.63255325     0.18400
C663        C  0.13211927  0.48543987  0.62532901     0.12300
C664        C  0.14885706  0.02641674  0.65438526    -0.12000
H665        H  0.09907300  0.06073928  0.66432143     0.12600
C666        C  0.02407828  0.02461002  0.62484253    -0.22900
H667        H  0.07370053  0.49239897  0.61524329     0.08300
C668        C  0.13549626  0.45502789  0.63176973     0.04600
C669        C  0.15638700  0.43476705  0.62375802    -0.20100
C670        C  0.17324416  0.44392179  0.60915673    -0.12400
C671        C  0.16987720  0.47445911  0.60272997     0.13300
C672        C  0.14931029  0.49493870  0.61095801    -0.22800
C673        C  0.11653594  0.44374998  0.64682496    -0.05900
H674        H  0.15907171  0.41135854  0.62869181     0.14800
C675        C  0.18841232  0.48574757  0.58755361    -0.16100
H676        H  0.14642588  0.01834158  0.60604476     0.09200
H677        H  0.01608599  0.49985512  0.62553980     0.07000
H678        H  0.02480799  0.03243977  0.61126802     0.08200
H679        H  0.00629998  0.03837266  0.63171835     0.07300
H680        H  0.16593865  0.03345052  0.64441169     0.02100
H681        H  0.15501029  0.00294842  0.65919890     0.02600
H682        H  0.15068627  0.04292990  0.66524773     0.06100
H683        H  0.12193110  0.41921714  0.65010306     0.05100
H684        H  0.09137093  0.44531224  0.64372834    -0.00700
H685        H  0.12142240  0.45816139  0.65826957     0.00800
H686        H  0.18198330  0.47226905  0.57602914     0.04500
H687        H  0.21367141  0.48294332  0.59012676     0.06400
H688        H  0.18387969  0.01056758  0.58467560     0.07300
C689        C  0.16291360  0.11892899  0.75528724    -0.22300
C690        C  0.13455248  0.13375156  0.75850130     0.09600
C691        C  0.12959639  0.14868197  0.77434142     0.10000
C692        C  0.15335113  0.14839476  0.78670663    -0.17300
C693        C  0.18175888  0.13325882  0.78358308    -0.27700
C694        C  0.18678000  0.11876375  0.76749057     0.18400
C695        C  0.11057601  0.13337001  0.74491721     0.12300
C696        C  0.09931172  0.16489265  0.77812835    -0.12000
H697        H  0.14952382  0.15949742  0.79898783     0.12600
C698        C  0.21715982  0.10383645  0.76232477    -0.22900
H699        H  0.16660913  0.10775411  0.74300287     0.08300
C700        C  0.11237308  0.15341846  0.73063739     0.04600
C701        C  0.08997250  0.15117113  0.71764352    -0.20100
C702        C  0.06581488  0.12920888  0.71853130    -0.12400
C703        C  0.06386097  0.10938172  0.73311048     0.13300
C704        C  0.08640101  0.11173252  0.74605637    -0.22800
C705        C  0.13780509  0.17734652  0.72920282    -0.05900
H706        H  0.09151258  0.16655711  0.70664876     0.14800
C707        C  0.03783057  0.08626034  0.73549245    -0.16100
H708        H  0.08531884  0.09650087  0.75713775     0.09200
H709        H  0.22559485  0.11462251  0.75022825     0.07000
H710        H  0.21345478  0.07866752  0.76009244     0.08200
H711        H  0.23594234  0.10658250  0.77186655     0.07300
H712        H  0.07985816  0.14797734  0.77763468     0.02100
H713        H  0.09523509  0.18346224  0.76847949     0.02600
H714        H  0.09936990  0.17566817  0.79104986     0.06100
H715        H  0.13548225  0.19155987  0.71736200     0.05100
H716        H  0.16085972  0.16573233  0.72887927    -0.00700
H717        H  0.13680084  0.19318254  0.74039788     0.00800
H718        H  0.03920291  0.06802130  0.72550643     0.04500
H719        H  0.01499675  0.09825630  0.73477615     0.06400
H720        H  0.03914038  0.07441187  0.74814628     0.07300
C721        C  0.33585131  0.14305326  0.75595092    -0.22300
C722        C  0.36279774  0.12525063  0.75818049     0.09600
C723        C  0.36651497  0.10742401  0.77327934     0.10000
C724        C  0.34297473  0.10781436  0.78578470    -0.17300
C725        C  0.31581794  0.12551270  0.78351479    -0.27700
C726        C  0.31192141  0.14284282  0.76814853     0.18400
C727        C  0.38638248  0.12530135  0.74429857     0.12300
C728        C  0.39500695  0.08766086  0.77611616    -0.12000
H729        H  0.34591301  0.09446555  0.79748546     0.12600
C730        C  0.28253685  0.16021999  0.76357689    -0.22900
H731        H  0.33310709  0.15665163  0.74431614     0.08300
C732        C  0.38047136  0.11127913  0.72827417     0.04600
C733        C  0.40334632  0.11245488  0.71544031    -0.20100
C734        C  0.43202772  0.12711401  0.71827691    -0.12400
C735        C  0.43824852  0.14038176  0.73453430     0.13300
C736        C  0.41500531  0.13992077  0.74716370    -0.22800
C737        C  0.35034315  0.09454029  0.72479251    -0.05900
H738        H  0.39881965  0.10190841  0.70308422     0.14800
C739        C  0.46941739  0.15378788  0.73945800    -0.16100
H740        H  0.41947295  0.15056860  0.75950134     0.09200
H741        H  0.27395812  0.15204024  0.75094331     0.07000
H742        H  0.28762498  0.18542970  0.76261998     0.08200
H743        H  0.26325397  0.15678330  0.77276901     0.07300
H744        H  0.41606740  0.10249194  0.77667936     0.02100
H745        H  0.39748018  0.07077896  0.76547124     0.02600
H746        H  0.39358769  0.07442808  0.78834318     0.06100
H747        H  0.35018965  0.08382137  0.71185595     0.05100
H748        H  0.33050837  0.11097787  0.72543811    -0.00700
H749        H  0.34695144  0.07581164  0.73443097     0.00800
H750        H  0.46675599  0.17884764  0.74239959     0.04500
H751        H  0.48750253  0.15116985  0.72946688     0.06400
H752        H  0.47818845  0.14166622  0.75108373     0.07300
C753        C  0.47461456  0.03487682  0.00760512    -0.22300
C754        C  0.49912795  0.01353350  0.00701082     0.09600
C755        C  0.02282367  0.01475695  0.01944683     0.10000
C756        C  0.02143217  0.03746465  0.03230557    -0.17300
C757        C  0.49679860  0.05893445  0.03304951    -0.27700
C758        C  0.47319765  0.05781140  0.02030740     0.18400
C759        C  0.49941125  0.49007438  0.99316705     0.12300
C760        C  0.04950306  0.49198779  0.01915982    -0.12000
H761        H  0.03955680  0.03826879  0.04195401     0.12600
C762        C  0.44684454  0.08086009  0.01900632    -0.22900
H763        H  0.45661911  0.03389113  0.99787603     0.08300
C764        C  0.48240078  0.46227866  0.99484694     0.04600
C765        C  0.48229408  0.44103346  0.98127830    -0.20100
C766        C  0.49897560  0.44683601  0.96610754    -0.12400
C767        C  0.01579778  0.47494069  0.96434752     0.13300
C768        C  0.01589853  0.49615737  0.97799012    -0.22800
C769        C  0.46462634  0.45495339  0.01102612    -0.05900
H770        H  0.46954270  0.41945419  0.98263553     0.14800
C771        C  0.03284251  0.48390819  0.94815508    -0.16100
H772        H  0.02838211  0.01783488  0.97676883     0.09200
H773        H  0.42432714  0.06863508  0.02079027     0.07000
H774        H  0.44708212  0.09175077  0.00607404     0.08200
H775        H  0.44814440  0.09995544  0.02836681     0.07300
H776        H  0.06256749  0.49419491  0.00692519     0.02100
H777        H  0.04032948  0.46798819  0.02034562     0.02600
H778        H  0.06597554  0.49600853  0.02988987     0.06100
H779        H  0.45286454  0.43204218  0.01028850     0.05100
H780        H  0.44657565  0.47294935  0.01324228    -0.00700
H781        H  0.48080738  0.45444784  0.02211140     0.00800
H782        H  0.02386913  0.50655510  0.94343348     0.04500
H783        H  0.02988120  0.46697681  0.93763095     0.06400
H784        H  0.05807097  0.48627541  0.95091288     0.07300
C785        C  0.48086932  0.28875136  0.99580912    -0.22300
C786        C  0.00385255  0.26578162  0.99564469     0.09600
C787        C  0.02614618  0.26540163  0.98235777     0.10000
C788        C  0.02467648  0.28795154  0.96931960    -0.17300
C789        C  0.50117946  0.31066534  0.96917490    -0.27700
C790        C  0.47921615  0.31129121  0.98280968     0.18400
C791        C  0.00335100  0.24169443  0.00923277     0.12300
C792        C  0.05139518  0.24115300  0.98196781    -0.12000
H793        H  0.04169009  0.28754689  0.95904680     0.12600
C794        C  0.45455975  0.33612501  0.98415593    -0.22900
H795        H  0.46400852  0.28888192  0.00616533     0.08300
C796        C  0.01769579  0.24633825  0.02527968     0.04600
C797        C  0.01649245  0.22263426  0.03769263    -0.20100
C798        C  0.50054037  0.19477136  0.03453590    -0.12400
C799        C  0.48587744  0.19040801  0.01845885     0.13300
C800        C  0.48760279  0.21391383  0.00599939    -0.22800
C801        C  0.03417007  0.27629809  0.02925411    -0.05900
H802        H  0.02772468  0.22598721  0.04998804     0.14800
C803        C  0.46932572  0.16065379  0.01410063    -0.16100
H804        H  0.47660403  0.21066585  0.99362885     0.09200
H805        H  0.44114874  0.33421399  0.99630195     0.07000
H806        H  0.43770202  0.33398117  0.97346456     0.08200
H807        H  0.46559940  0.35941750  0.98384680     0.07300
H808        H  0.04085153  0.21768016  0.98118739     0.02100
H809        H  0.06563630  0.24269500  0.99380371     0.02600
H810        H  0.06708090  0.24425039  0.97075974     0.06100
H811        H  0.04421451  0.27613359  0.04237187     0.05100
H812        H  0.01750441  0.29594431  0.02837026    -0.00700
H813        H  0.05337522  0.28006714  0.01994397     0.00800
H814        H  0.44882285  0.15757429  0.02259277     0.04500
H815        H  0.48550875  0.14073885  0.01566397     0.06400
H816        H  0.46080362  0.16062817  0.00065793     0.07300
C817        C  0.09810011  0.28162596  0.86972579    -0.22300
C818        C  0.11609689  0.26401525  0.88102169     0.09600
C819        C  0.11272190  0.26791123  0.89884645     0.10000
C820        C  0.09131434  0.28980562  0.90503169    -0.17300
C821        C  0.07328427  0.30800574  0.89376326    -0.27700
C822        C  0.07672685  0.30359632  0.87575427     0.18400
C823        C  0.13916778  0.24245496  0.87369243     0.12300
C824        C  0.13194766  0.24917811  0.91127500    -0.12000
H825        H  0.08884925  0.29282883  0.91875746     0.12600
C826        C  0.05899254  0.32234221  0.86260419    -0.22900
H827        H  0.10116930  0.27834190  0.85604475     0.08300
C828        C  0.13115521  0.21178140  0.86931365     0.04600
C829        C  0.15370381  0.19256263  0.86185039    -0.20100
C830        C  0.18386690  0.20353857  0.85854142    -0.12400
C831        C  0.19190897  0.23432905  0.86305605     0.13300
C832        C  0.16924294  0.25348544  0.87043691    -0.22800
C833        C  0.09883538  0.19947967  0.87245131    -0.05900
H834        H  0.14772412  0.16893524  0.85844254     0.14800
C835        C  0.22425327  0.24748240  0.86097261    -0.16100
H836        H  0.17513755  0.27714728  0.87385922     0.09200
H837        H  0.03370598  0.31742684  0.86365747     0.07000
H838        H  0.06607654  0.31652375  0.84928971     0.08200
H839        H  0.06349365  0.34748555  0.86448130     0.07300
H840        H  0.15705059  0.25382958  0.90907748     0.02100
H841        H  0.12739235  0.22405480  0.90941755     0.02600
H842        H  0.12640567  0.25505001  0.92479856     0.06100
H843        H  0.09652695  0.17495392  0.86828491     0.05100
H844        H  0.08166976  0.21361821  0.86520422    -0.00700
H845        H  0.09326307  0.20062786  0.88633651     0.00800
H846        H  0.22355794  0.26755950  0.85201507     0.04500
H847        H  0.24141116  0.23050722  0.85607675     0.06400
H848        H  0.23287265  0.25558132  0.87361171     0.07300
C849        C  0.35881412  0.20911544  0.87945440    -0.22300
C850        C  0.36271625  0.23909543  0.87289850     0.09600
C851        C  0.34680050  0.24814000  0.85789750     0.10000
C852        C  0.32581688  0.22740364  0.85030224    -0.17300
C853        C  0.32083733  0.19759766  0.85719274    -0.27700
C854        C  0.33869223  0.18791563  0.87158531     0.18400
C855        C  0.38382079  0.26060544  0.88189784     0.12300
C856        C  0.35193819  0.27967118  0.84995694    -0.12000
H857        H  0.31258212  0.23488800  0.83920824     0.12600
C858        C  0.33819164  0.15535530  0.87875576    -0.22900
H859        H  0.37189302  0.20209449  0.89070863     0.08300
C860        C  0.37240335  0.28231953  0.89384372     0.04600
C861        C  0.39306859  0.30352594  0.90129087    -0.20100
C862        C  0.42495573  0.30306586  0.89728921    -0.12400
C863        C  0.43666418  0.27948577  0.88635987     0.13300
C864        C  0.41576676  0.25900013  0.87851606    -0.22800
C865        C  0.33844182  0.28311742  0.89867623    -0.05900
H866        H  0.38409142  0.32119541  0.90984312     0.14800
C867        C  0.47092318  0.27445376  0.88307431    -0.16100
H868        H  0.42446316  0.24147306  0.86977645     0.09200
H869        H  0.32711811  0.15540049  0.89162643     0.07000
H870        H  0.36243161  0.14670335  0.88005676     0.08200
H871        H  0.32608274  0.13858146  0.87041243     0.07300
H872        H  0.37683983  0.28234713  0.84643720     0.02100
H873        H  0.34547101  0.29816591  0.85916216     0.02600
H874        H  0.33778625  0.28292513  0.83817739     0.06100
H875        H  0.33347494  0.30143502  0.90829256     0.05100
H876        H  0.33156935  0.26039761  0.90427311    -0.00700
H877        H  0.32395764  0.28780847  0.88719307     0.00800
H878        H  0.47696589  0.24989061  0.88590055     0.04500
H879        H  0.48612070  0.28882706  0.89129886     0.06400
H880        H  0.47629481  0.27938080  0.86940317     0.07300
C881        C  0.36628606  0.03582349  0.86508728    -0.22300
C882        C  0.35563528  0.00741738  0.87164212     0.09600
C883        C  0.32367008  0.49963426  0.87057598     0.10000
C884        C  0.30318269  0.02085601  0.86284883    -0.17300
C885        C  0.31370921  0.04949237  0.85653868    -0.27700
C886        C  0.34568128  0.05701167  0.85746783     0.18400
C887        C  0.37815461  0.48546762  0.87938926     0.12300
C888        C  0.31155355  0.46913700  0.87732225    -0.12000
H889        H  0.27861729  0.01527648  0.86207541     0.12600
C890        C  0.35891235  0.08667476  0.85020901    -0.22900
H891        H  0.39085730  0.04138298  0.86583521     0.08300
C892        C  0.39549743  0.46503831  0.86907782     0.04600
C893        C  0.41588919  0.44396069  0.87688136    -0.20100
C894        C  0.41941331  0.44265392  0.89483329    -0.12400
C895        C  0.40220966  0.46369922  0.90515236     0.13300
C896        C  0.38179586  0.48483218  0.89723106    -0.22800
C897        C  0.39214430  0.46522489  0.84983995    -0.05900
H898        H  0.42879130  0.42801631  0.86883205     0.14800
C899        C  0.40550417  0.46467645  0.92439368    -0.16100
H900        H  0.36836724  0.50085359  0.90497799     0.09200
H901        H  0.37644489  0.08102901  0.84021738     0.07000
H902        H  0.37049969  0.09993266  0.86057069     0.08200
H903        H  0.34104032  0.10177980  0.84423093     0.07300
H904        H  0.31618044  0.46732562  0.89129235     0.02100
H905        H  0.32330726  0.44966969  0.87062449     0.02600
H906        H  0.28607923  0.46679892  0.87530154     0.06100
H907        H  0.40722983  0.44750775  0.84368782     0.05100
H908        H  0.39929124  0.98885448  0.84466994    -0.00700
H909        H  0.36764105  0.46020985  0.84630529     0.00800
H910        H  0.39171030  0.48386856  0.93010300     0.04500
H911        H  0.43027028  0.46836339  0.92789413     0.06400
H912        H  0.39693249  0.44268924  0.93014278     0.07300
C913        C  0.08097311  0.48727677  0.87169381    -0.22300
C914        C  0.11176952  0.48917387  0.87733260     0.09600
C915        C  0.12190167  0.47038807  0.89105068     0.10000
C916        C  0.10120412  0.44896987  0.89839061    -0.17300
C917        C  0.07043318  0.44605368  0.89243603    -0.27700
C918        C  0.06002604  0.46609571  0.87907397     0.18400
C919        C  0.13311642  0.01119067  0.86872176     0.12300
C920        C  0.15438338  0.97346657  0.89814903    -0.12000
H921        H  0.10936757  0.43404074  0.90865393     0.12600
C922        C  0.02689362  0.46605181  0.87266648    -0.22900
H923        H  0.07341116  0.50235160  0.86134489     0.08300
C924        C  0.15295517  0.50178756  0.85540946     0.04600
C925        C  0.17430952  0.02299046  0.84844168    -0.20100
C926        C  0.17545566  0.05378758  0.85428082    -0.12400
C927        C  0.15362457  0.06384473  0.86674412     0.13300
C928        C  0.13311971  0.04219198  0.87402041    -0.22800
C929        C  0.15203754  0.46910169  0.84859768    -0.05900
H930        H  0.19066723  0.01534387  0.83873444     0.14800
C931        C  0.15042972  0.09720654  0.87228547    -0.16100
H932        H  0.11688209  0.04955809  0.88386254     0.09200
H933        H  0.02170631  0.44391157  0.86603354     0.07000
H934        H  0.02263709  0.48505714  0.86329378     0.08200
H935        H  0.01059189  0.46939602  0.88357138     0.07300
H936        H  0.15823630  0.99753674  0.90272914     0.02100
H937        H  0.17172795  0.96806695  0.88803966     0.02600
H938        H  0.15838112  0.95737153  0.90908330     0.06100
H939        H  0.16908466  0.46565025  0.83805283     0.05100
H940        H  0.12845338  0.46402464  0.84353372    -0.00700
H941        H  0.15756700  0.45230334  0.85896633     0.00800
H942        H  0.12594108  0.10484519  0.87052540     0.04500
H943        H  0.16501527  0.11334526  0.86470510     0.06400
H944        H  0.15660970  0.09933532  0.88605103     0.07300
Fe945      Fe  0.99643760  0.87557105  0.89381263     1.65800
Fe946      Fe  0.45864104  0.87595662  0.93238267     1.73200
Fe947      Fe  0.03865186  0.87729874  0.93103317     1.54400
O948        O  0.05763541  0.84235196  0.91609941    -0.81500
O949        O  0.47289784  0.91134324  0.94828561    -0.79900
O950        O  0.03032279  0.84238423  0.89197165    -0.84100
O951        O  0.02849185  0.91046746  0.89114269    -0.78900
O952        O  0.02611885  0.84376544  0.94889574    -0.80700
O953        O  0.43730487  0.90898652  0.91707484    -0.83400
C954        C  0.05050621  0.92136260  0.90001947     0.97300
C955        C  0.05240733  0.83222333  0.90108886     1.04800
O956        O  0.49793401  0.87629497  0.91911987    -1.12400
O957        O  0.43975501  0.84001282  0.91827079    -0.74800
O958        O  0.46432117  0.84038690  0.89312589    -0.78300
O959        O  0.05679320  0.91115466  0.91492660    -0.79000
C960        C  0.44445277  0.82908230  0.90338917     0.96200
O961        O  0.46236452  0.90880278  0.89220071    -0.77000
O962        O  0.47438707  0.84328080  0.94958183    -0.82200
C963        C  0.49892043  0.92241267  0.95292291     0.98900
C964        C  0.50053273  0.83389121  0.95499421     1.04800
O965        O  0.02484284  0.91237014  0.94740334    -0.77800
C966        C  0.44110665  0.91903514  0.90192123     1.03100
Fe967      Fe  0.24780039  0.62595807  0.85763749     1.65800
Fe968      Fe  0.25032773  0.66732859  0.82041992     1.73200
Fe969      Fe  0.24713137  0.58820849  0.81934117     1.54400
O970        O  0.27675608  0.56481283  0.83592737    -0.81500
O971        O  0.21220178  0.65699702  0.80531692    -0.79900
O972        O  0.28421867  0.59513165  0.85869620    -0.84100
O973        O  0.21544606  0.59052744  0.85885123    -0.78900
O974        O  0.28528388  0.60012784  0.80467373    -0.80700
O975        O  0.22077848  0.68945559  0.83751142    -0.83400
C976        C  0.20100300  0.57381770  0.84811505     0.97300
C977        C  0.29038012  0.57123564  0.84990854     1.04800
O978        O  0.24839405  0.62715350  0.83244055    -1.12400
O979        O  0.28889775  0.68114795  0.83418942    -0.74800
O980        O  0.27982974  0.66138117  0.86010978    -0.78300
O981        O  0.20858125  0.57243280  0.83241481    -0.79000
C982        C  0.29537945  0.67855822  0.85001606     0.96200
O983        O  0.21154145  0.65669670  0.85910594    -0.77000
O984        O  0.28011464  0.65130277  0.80163090    -0.82200
C985        C  0.20515710  0.63214810  0.79748940     0.98900
C986        C  0.29232932  0.62560549  0.79743518     1.04800
O987        O  0.21744255  0.60608101  0.80098911    -0.77800
C988        C  0.20671034  0.68198085  0.85124542     1.03100
Fe989      Fe  0.24959490  0.87633440  0.60866637     1.65800
Fe990      Fe  0.20869387  0.87801319  0.57151013     1.73200
Fe991      Fe  0.28808180  0.87718181  0.57040890     1.54400
O992        O  0.30922337  0.90875063  0.58682940    -0.81500
O993        O  0.22056632  0.84044233  0.55655744    -0.79900
O994        O  0.27844162  0.91421093  0.60965750    -0.84100
O995        O  0.28706916  0.84694209  0.61018130    -0.78900
O996        O  0.27459161  0.91417625  0.55510419    -0.80700
O997        O  0.18755961  0.84764254  0.58863937    -0.83400
C998        C  0.30582397  0.83398846  0.59994852     0.97300
C999        C  0.30220218  0.92185559  0.60091976     1.04800
O1000       O  0.24887471  0.87714570  0.58348317    -1.12400
O1001       O  0.19327546  0.91594051  0.58529903    -0.74800
O1002       O  0.21210152  0.90579449  0.61129178    -0.78300
O1003       O  0.30644475  0.84011106  0.58402823    -0.79000
C1004       C  0.19437266  0.92088088  0.60131657     0.96200
O1005       O  0.22097660  0.83819218  0.60987217    -0.77000
O1006       O  0.22359591  0.90828753  0.55262012    -0.82200
C1007       C  0.24572832  0.83279324  0.54912764     0.98900
C1008       C  0.24877795  0.92135979  0.54821285     1.04800
O1009       O  0.27166784  0.84562883  0.55251673    -0.77800
C1010       C  0.19563788  0.83303063  0.60209777     1.03100
Fe1011     Fe  0.99854032  0.62513070  0.64433457     1.65800
Fe1012     Fe  0.99831261  0.58737807  0.68260359     1.73200
Fe1013     Fe  0.99963183  0.66645360  0.68137731     1.54400
O1014       O  0.03102425  0.68603252  0.66402162    -0.81500
O1015       O  0.46084472  0.60126055  0.69705365    -0.79900
O1016       O  0.03749636  0.65244123  0.64265642    -0.84100
O1017       O  0.47007110  0.66335164  0.64170617    -0.78900
O1018       O  0.03682446  0.65371946  0.69649401    -0.80700
O1019       O  0.46756089  0.56581303  0.66598051    -0.83400
C1020       C  0.45608789  0.68168015  0.65178169     0.97300
C1021       C  0.04462241  0.67733115  0.65031988     1.04800
O1022       O  0.99884943  0.62635703  0.66948630    -1.12400
O1023       O  0.03594288  0.56967071  0.66949686    -0.74800
O1024       O  0.02698712  0.58662901  0.64295403    -0.78300
O1025       O  0.46210020  0.68321498  0.66767160    -0.79000
C1026       C  0.04088492  0.56893618  0.65347710     0.96200
O1027       O  0.45941163  0.59780290  0.64389411    -0.77000
O1028       O  0.02863292  0.60342850  0.70114322    -0.82200
C1029       C  0.45515564  0.62689971  0.70436341     0.98900
C1030       C  0.04240744  0.62869502  0.70457577     1.04800
O1031       O  0.46874201  0.65210422  0.70031495    -0.77800
C1032       C  0.45291066  0.57364420  0.65249646     1.03100
Fe1033     Fe  0.24999920  0.63029136  0.39513136     1.65800
Fe1034     Fe  0.28952648  0.63010453  0.43274878     1.73200
Fe1035     Fe  0.21038953  0.62812374  0.43278337     1.54400
O1036       O  0.19304360  0.66620101  0.41982732    -0.81500
O1037       O  0.27424856  0.59961420  0.45165451    -0.79900
O1038       O  0.21150902  0.65909327  0.39350430    -0.84100
O1039       O  0.22260534  0.59130043  0.39385411    -0.78900
O1040       O  0.22570495  0.65804969  0.45180310    -0.80700
O1041       O  0.30633560  0.59249092  0.41936311    -0.83400
C1042       C  0.19807227  0.58403509  0.40198332     0.97300
C1043       C  0.19342209  0.67274479  0.40395688     1.04800
O1044       O  0.24996430  0.62956458  0.42024338    -1.12400
O1045       O  0.31064940  0.66065110  0.41565318    -0.74800
O1046       O  0.27754696  0.66929697  0.39417159    -0.78300
O1047       O  0.18951270  0.59807317  0.41550177    -0.79000
C1048       C  0.30262375  0.67501374  0.40209128     0.96200
O1049       O  0.28849483  0.60157603  0.39308416    -0.77000
O1050       O  0.27603583  0.66772146  0.44720045    -0.82200
C1051       C  0.24933921  0.58470837  0.45474743     0.98900
C1052       C  0.25049880  0.67317075  0.45481593     1.04800
O1053       O  0.22403833  0.58989474  0.44688614    -0.77800
C1054       C  0.30622883  0.58705701  0.40338864     1.03100
Fe1055     Fe  0.50059654  0.88143148  0.35848348     1.65800
Fe1056     Fe  0.49791124  0.84020617  0.32101201     1.73200
Fe1057     Fe  0.50003800  0.91996301  0.31993191     1.54400
O1058       O  0.46486152  0.93931713  0.33442128    -0.81500
O1059       O  0.03178751  0.85304509  0.30347369    -0.79900
O1060       O  0.46796395  0.91634950  0.36003524    -0.84100
O1061       O  0.03650605  0.91286197  0.35948034    -0.78900
O1062       O  0.46647219  0.90578782  0.30270077    -0.80700
O1063       O  0.03276243  0.82052107  0.33574927    -0.83400
C1064       C  0.04480900  0.93536240  0.35005719     0.97300
C1065       C  0.45594991  0.93594016  0.34983344     1.04800
O1066       O  0.49961710  0.88054434  0.33311739    -1.12400
O1067       O  0.46358898  0.82240835  0.33696909    -0.74800
O1068       O  0.46444636  0.85048073  0.36084736    -0.78300
O1069       O  0.03335843  0.94051306  0.33532473    -0.79000
C1070       C  0.45294137  0.82911455  0.35170420     0.96200
O1071       O  0.03342969  0.84662333  0.36034042    -0.77000
O1072       O  0.46300694  0.85434328  0.30452542    -0.82200
C1073       C  0.04339628  0.87843940  0.29816774     0.98900
C1074       C  0.45432331  0.88020263  0.29833364     1.04800
O1075       O  0.03505926  0.90484312  0.30377601    -0.77800
C1076       C  0.04357613  0.82532473  0.35063795     1.03100
Fe1077     Fe  0.49993925  0.62447764  0.10755640     1.65800
Fe1078     Fe  0.03896883  0.62514703  0.06947538     1.73200
Fe1079     Fe  0.45959313  0.62553266  0.06993103     1.54400
O1080       O  0.43842862  0.59416611  0.08649476    -0.81500
O1081       O  0.02616493  0.66326905  0.05501546    -0.79900
O1082       O  0.46986884  0.58751663  0.10885998    -0.84100
O1083       O  0.46380752  0.65589289  0.10978020    -0.78900
O1084       O  0.47199753  0.58854696  0.05469252    -0.80700
O1085       O  0.06082984  0.65534078  0.08627007    -0.83400
C1086       C  0.44549819  0.66983344  0.09958035     0.97300
C1087       C  0.44593399  0.58028194  0.10028151     1.04800
O1088       O  0.49949454  0.62505791  0.08231184    -1.12400
O1089       O  0.05567751  0.58697606  0.08270394    -0.74800
O1090       O  0.03601426  0.59305313  0.10894484    -0.78300
O1091       O  0.44305931  0.66264564  0.08386857    -0.79000
C1092       C  0.05421850  0.57972418  0.09848017     0.96200
O1093       O  0.03029621  0.66122346  0.10898925    -0.77000
O1094       O  0.02284715  0.59522551  0.05066134    -0.82200
C1095       C  0.50059544  0.67024810  0.04784170     1.03700
C1096       C  0.49715945  0.58233206  0.04691502     1.04800
O1097       O  0.47510582  0.65683243  0.05152011    -0.77800
C1098       C  0.05434536  0.66838915  0.10040355     1.03100
Fe1099     Fe  0.24776568  0.87557161  0.14411750     1.65800
Fe1100     Fe  0.24890512  0.91538197  0.18185645     1.73200
Fe1101     Fe  0.25046368  0.83591740  0.18211837     1.54400
O1102       O  0.21650594  0.81562350  0.16698066    -0.81500
O1103       O  0.28726272  0.90324944  0.19635801    -0.79900
O1104       O  0.21132229  0.84471451  0.14346995    -0.84100
O1105       O  0.27941899  0.84024761  0.14160167    -0.78900
O1106       O  0.21540126  0.84865937  0.19888503    -0.80700
O1107       O  0.27866595  0.93711330  0.16474074    -0.83400
C1108       C  0.29290995  0.82085489  0.15125012     0.97300
C1109       C  0.20297932  0.82220327  0.15293178     1.04800
O1110       O  0.24909716  0.87556592  0.16939873    -1.12400
O1111       O  0.21033466  0.93132862  0.16875037    -0.74800
O1112       O  0.21561584  0.91095310  0.14280353    -0.78300
O1113       O  0.28580270  0.81789647  0.16699034    -0.79000
C1114       C  0.20212352  0.92915273  0.15318641     0.96200
O1115       O  0.28436435  0.90618760  0.14208477    -0.77000
O1116       O  0.21920879  0.89994601  0.20086601    -0.82200
C1117       C  0.29656954  0.87762822  0.20263627     0.98900
C1118       C  0.20771760  0.87427706  0.20567566     1.04800
O1119       O  0.28424744  0.85166423  0.19891974    -0.77800
C1120       C  0.29156590  0.93006814  0.15064403     1.03100
C1121       C  0.13248535  0.79105097  0.12894990    -0.22300
C1122       C  0.13565874  0.75914486  0.13199187     0.09600
C1123       C  0.15917970  0.74838760  0.14313922     0.10000
C1124       C  0.17999123  0.76974101  0.15033110    -0.17300
C1125       C  0.17757317  0.80170806  0.14688221    -0.27700
C1126       C  0.15245854  0.81260316  0.13668440     0.18400
C1127       C  0.11416169  0.73731841  0.12337683     0.12300
C1128       C  0.16229607  0.71440576  0.14749055    -0.12000
H1129       H  0.19884310  0.76125299  0.15829608     0.12600
C1130       C  0.14503021  0.84656732  0.13418993    -0.22900
H1131       H  0.11393769  0.79924091  0.12066771     0.08300
C1132       C  0.08283842  0.73438432  0.12846469     0.04600
C1133       C  0.06395548  0.71221257  0.12046591    -0.20100
C1134       C  0.07548677  0.69274134  0.10742092    -0.12400
C1135       C  0.10700005  0.69629650  0.10214284     0.13300
C1136       C  0.12572600  0.71865737  0.11015936    -0.22800
C1137       C  0.06949561  0.75407194  0.14263018    -0.05900
H1138       H  0.04002882  0.70993160  0.12463701     0.14800
C1139       C  0.12172225  0.67621557  0.08856106    -0.16100
H1140       H  0.14983582  0.72132408  0.10630889     0.09200
H1141       H  0.12020381  0.85074247  0.13744120     0.07000
H1142       H  0.14893109  0.85320947  0.12058764     0.08200
H1143       H  0.15869814  0.86206580  0.14259332     0.07300
H1144       H  0.16751798  0.70087193  0.13575471     0.02100
H1145       H  0.14025188  0.70585585  0.15325316     0.02600
H1146       H  0.18134713  0.71014913  0.15682300     0.06100
H1147       H  0.04482490  0.74811586  0.14535002     0.05100
H1148       H  0.07038304  0.77894659  0.13893543    -0.00700
H1149       H  0.08308643  0.75049658  0.15457651     0.00800
H1150       H  0.14675113  0.68172507  0.08668712     0.04500
H1151       H  0.10994138  0.67995657  0.07606622     0.06400
H1152       H  0.12016054  0.65146130  0.09241310     0.07300
C1153       C  0.41357715  0.73660104  0.12623425    -0.22300
C1154       C  0.38225931  0.73606188  0.12136752     0.09600
C1155       C  0.37220472  0.71516712  0.10866040     0.10000
C1156       C  0.39370912  0.69455873  0.10137933    -0.17300
C1157       C  0.42505482  0.69444226  0.10649145    -0.27700
C1158       C  0.43528972  0.71639992  0.11878580     0.18400
C1159       C  0.36042056  0.75802398  0.12952700     0.12300
C1160       C  0.33870130  0.71433600  0.10300811    -0.12000
H1161       H  0.38580096  0.67784742  0.09198047     0.12600
C1162       C  0.46888760  0.72017795  0.12392772    -0.22900
H1163       H  0.42119557  0.75323062  0.13575956     0.08300
C1164       C  0.34519159  0.75074206  0.14501965     0.04600
C1165       C  0.32384830  0.77194749  0.15195470    -0.20100
C1166       C  0.31718763  0.80028652  0.14368391    -0.12400
C1167       C  0.33322903  0.80768161  0.12819696     0.13300
C1168       C  0.35467265  0.78641520  0.12142578    -0.22800
C1169       C  0.35125931  0.72041404  0.15408868    -0.05900
H1170       H  0.31181340  0.76596348  0.16372932     0.14800
C1171       C  0.32843548  0.83784617  0.11866208    -0.16100
H1172       H  0.36679837  0.79171075  0.10956642     0.09200
H1173       H  0.47178060  0.71368053  0.13762441     0.07000
H1174       H  0.47591716  0.74480748  0.12223297     0.08200
H1175       H  0.48505210  0.70625279  0.11604062     0.07300
H1176       H  0.33199512  0.73721737  0.09755760     0.02100
H1177       H  0.32347455  0.70898363  0.11414216     0.02600
H1178       H  0.33469995  0.69639630  0.09305291     0.06100
H1179       H  0.33730874  0.71823694  0.16603191     0.05100
H1180       H  0.37625435  0.71874976  0.15756167    -0.00700
H1181       H  0.34513529  0.70076970  0.14555456     0.00800
H1182       H  0.34480537  0.84036067  0.10770713     0.04500
H1183       H  0.33237498  0.85769084  0.12740643     0.06400
H1184       H  0.30452887  0.83888912  0.11333194     0.07300
C1185       C  0.38648046  0.51493580  0.10432710    -0.22300
C1186       C  0.38193485  0.51443476  0.12210687     0.09600
C1187       C  0.39983088  0.53389884  0.13269105     0.10000
C1188       C  0.42106735  0.55452122  0.12515043    -0.17300
C1189       C  0.42521164  0.55580512  0.10725679    -0.27700
C1190       C  0.40845342  0.53481265  0.09675029     0.18400
C1191       C  0.35867896  0.99297137  0.12953814     0.12300
C1192       C  0.39629505  0.53303971  0.15191635    -0.12000
H1193       H  0.43402068  0.57023691  0.13329025     0.12600
C1194       C  0.41394223  0.53148305  0.07773364    -0.22900
H1195       H  0.37316059  0.99927750  0.09644428     0.08300
C1196       C  0.32743319  0.00217764  0.13173461     0.04600
C1197       C  0.30612494  0.98115901  0.13889735    -0.20100
C1198       C  0.31538222  0.95113588  0.14370699    -0.12400
C1199       C  0.34679808  0.94203861  0.14164720     0.13300
C1200       C  0.36806075  0.96312856  0.13451043    -0.22800
C1201       C  0.31646586  0.53406593  0.12631286    -0.05900
H1202       H  0.28201591  0.98800452  0.14054542     0.14800
C1203       C  0.35891995  0.91079351  0.14727476    -0.16100
H1204       H  0.39220796  0.95635987  0.13293403     0.09200
H1205       H  0.39292600  0.53913646  0.07061031     0.07000
H1206       H  0.41852492  0.50671674  0.07470395     0.08200
H1207       H  0.43437318  0.54459657  0.07303263     0.07300
H1208       H  0.40191901  0.50943685  0.15676930     0.02100
H1209       H  0.37201059  0.53893267  0.15552443     0.02600
H1210       H  0.41208229  0.54980820  0.15830157     0.06100
H1211       H  0.29126014  0.53742780  0.12889011     0.05100
H1212       H  0.32050427  0.53744990  0.11236581    -0.00700
H1213       H  0.32953315  0.55199823  0.13351948     0.00800
H1214       H  0.36897614  0.89848843  0.13607451     0.04500
H1215       H  0.34076863  0.89582515  0.15309091     0.06400
H1216       H  0.37749584  0.91408038  0.15698663     0.07300
C1217       C  0.14413439  0.99525225  0.14589825    -0.22300
C1218       C  0.13092624  0.98618342  0.13030612     0.09600
C1219       C  0.13945327  0.95771510  0.12287728     0.10000
C1220       C  0.16163180  0.93906735  0.13110767    -0.17300
C1221       C  0.17610412  0.94850779  0.14645408    -0.27700
C1222       C  0.16675533  0.97694486  0.15408016     0.18400
C1223       C  0.11051123  0.50842684  0.12124786     0.12300
C1224       C  0.12580124  0.94748056  0.10602737    -0.12000
H1225       H  0.16826476  0.91729276  0.12521359     0.12600
C1226       C  0.18125189  0.98910053  0.17032797    -0.22900
H1227       H  0.13740264  0.01737090  0.15137412     0.08300
C1228       C  0.07815330  0.50918244  0.12406492     0.04600
C1229       C  0.06031263  0.53223570  0.11597665    -0.20100
C1230       C  0.07418814  0.55465878  0.10527161    -0.12400
C1231       C  0.10679700  0.55377255  0.10251723     0.13300
C1232       C  0.12438950  0.53034948  0.11038994    -0.22800
C1233       C  0.06267700  0.98632063  0.13605124    -0.05900
H1234       H  0.03541180  0.53306195  0.11821003     0.14800
C1235       C  0.12436341  0.57788219  0.09231759    -0.16100
H1236       H  0.14940597  0.52978938  0.10851808     0.09200
H1237       H  0.17177433  0.01219016  0.17390758     0.07000
H1238       H  0.20676607  0.99171473  0.16856566     0.08200
H1239       H  0.17635249  0.97299500  0.18113658     0.07300
H1240       H  0.13177565  0.46508789  0.09579561     0.02100
H1241       H  0.10014231  0.94547289  0.10718376     0.02600
H1242       H  0.13510031  0.92458729  0.10196172     0.06100
H1243       H  0.03719577  0.99037448  0.13694618     0.05100
H1244       H  0.07267426  0.98837364  0.14911995    -0.00700
H1245       H  0.06646256  0.96236314  0.13129279     0.00800
H1246       H  0.14230654  0.58873165  0.10060211     0.04500
H1247       H  0.10958433  0.59683673  0.08734648     0.06400
H1248       H  0.13612715  0.56660669  0.08128576     0.07300
C1249       C  0.08685354  0.89084858  0.25622398    -0.22300
C1250       C  0.11399613  0.87364159  0.25917148     0.09600
C1251       C  0.11777432  0.85770468  0.27487073     0.10000
C1252       C  0.09429057  0.85957668  0.28738985    -0.17300
C1253       C  0.06724213  0.87714898  0.28454507    -0.27700
C1254       C  0.06319924  0.89250190  0.26860078     0.18400
C1255       C  0.13820380  0.87287830  0.24561859     0.12300
C1256       C  0.14648772  0.83863816  0.27832139    -0.12000
H1257       H  0.09714238  0.84750973  0.29951068     0.12600
C1258       C  0.03384622  0.90972960  0.26384873    -0.22900
H1259       H  0.08392294  0.90272913  0.24404729     0.08300
C1260       C  0.13618161  0.85243163  0.23157633     0.04600
C1261       C  0.15935030  0.85315603  0.21885134    -0.20100
C1262       C  0.18425444  0.87424993  0.21969348    -0.12400
C1263       C  0.18634446  0.89453289  0.23396722     0.13300
C1264       C  0.16326258  0.89350389  0.24672612    -0.22800
C1265       C  0.10955405  0.82989892  0.23005066    -0.05900
H1266       H  0.15770027  0.83752958  0.20802253     0.14800
C1267       C  0.21320124  0.91668992  0.23618880    -0.16100
H1268       H  0.16462064  0.90899834  0.25762851     0.09200
H1269       H  0.02400944  0.89963952  0.25194047     0.07000
H1270       H  0.03936659  0.93455145  0.26148054     0.08200
H1271       H  0.01546044  0.90839704  0.27377920     0.07300
H1272       H  0.16742045  0.85370024  0.27778742     0.02100
H1273       H  0.14864966  0.82011797  0.26852070     0.02600
H1274       H  0.14564863  0.82744049  0.29116499     0.06100
H1275       H  0.11162441  0.81534159  0.21837287     0.05100
H1276       H  0.08721447  0.84279266  0.22933524    -0.00700
H1277       H  0.10914643  0.81427678  0.24140138     0.00800
H1278       H  0.21282393  0.93461163  0.22594313     0.04500
H1279       H  0.23554782  0.90373842  0.23575942     0.06400
H1280       H  0.21202710  0.92901338  0.24866553     0.07300
C1281       C  0.38479161  0.90171795  0.27023619    -0.22300
C1282       C  0.38815164  0.88021237  0.25691143     0.09600
C1283       C  0.41263887  0.85844975  0.25747565     0.10000
C1284       C  0.43331577  0.85867628  0.27138879    -0.17300
C1285       C  0.43019834  0.88024828  0.28476741    -0.27700
C1286       C  0.40527073  0.90186042  0.28428042     0.18400
C1287       C  0.36475191  0.87963356  0.24295605     0.12300
C1288       C  0.41691500  0.83501853  0.24336553    -0.12000
H1289       H  0.45242915  0.84223917  0.27166487     0.12600
C1290       C  0.39857201  0.92444592  0.29856263    -0.22900
H1291       H  0.36556720  0.91803025  0.26986907     0.08300
C1292       C  0.33726707  0.86202940  0.24459558     0.04600
C1293       C  0.31603929  0.86130407  0.23097062    -0.20100
C1294       C  0.32143688  0.87798690  0.21574779    -0.12400
C1295       C  0.34930626  0.89534135  0.21400251     0.13300
C1296       C  0.37050131  0.89609092  0.22772904    -0.22800
C1297       C  0.33027965  0.84414215  0.26078435    -0.05900
H1298       H  0.29467033  0.84815486  0.23236891     0.14800
C1299       C  0.35811734  0.91229618  0.19775488    -0.16100
H1300       H  0.39190817  0.90921825  0.22645690     0.09200
H1301       H  0.37424772  0.92123238  0.30306144     0.07000
H1302       H  0.40127434  0.94857041  0.29373242     0.08200
H1303       H  0.41373606  0.92126146  0.30988952     0.07300
H1304       H  0.42073526  0.84720701  0.23097439     0.02100
H1305       H  0.39586587  0.82021546  0.24235477     0.02600
H1306       H  0.43723097  0.81966718  0.24577831     0.06100
H1307       H  0.30777966  0.83156440  0.25993750     0.05100
H1308       H  0.32895835  0.86033628  0.27180814    -0.00700
H1309       H  0.34892086  0.82682369  0.26319069     0.00800
H1310       H  0.35973542  0.93757110  0.20034679     0.04500
H1311       H  0.34147419  0.90863087  0.18713553     0.06400
H1312       H  0.38114695  0.90390148  0.19323842     0.07300
C1313       C  0.11473601  0.79426756  0.37417773    -0.22300
C1314       C  0.11015759  0.76221476  0.37258777     0.09600
C1315       C  0.08491754  0.75105094  0.36283834     0.10000
C1316       C  0.06421166  0.77229257  0.35530160    -0.17300
C1317       C  0.06819707  0.80445570  0.35726791    -0.27700
C1318       C  0.09442787  0.81558470  0.36639167     0.18400
C1319       C  0.13229074  0.74067083  0.38104622     0.12300
C1320       C  0.07988196  0.71673669  0.36039637    -0.12000
H1321       H  0.04430583  0.76371951  0.34822543     0.12600
C1322       C  0.10249372  0.84956870  0.36766197    -0.22900
H1323       H  0.13456359  0.80270530  0.38137792     0.08300
C1324       C  0.16167840  0.73427693  0.37385255     0.04600
C1325       C  0.18126053  0.71265418  0.38189948    -0.20100
C1326       C  0.17224274  0.69710552  0.39702120    -0.12400
C1327       C  0.14280867  0.70406320  0.40438322     0.13300
C1328       C  0.12330890  0.72582466  0.39627691    -0.22800
C1329       C  0.17208673  0.74975468  0.35746861    -0.05900
H1330       H  0.20374496  0.70769499  0.37621445     0.14800
C1331       C  0.13110386  0.68801513  0.42034607    -0.16100
H1332       H  0.10063921  0.73099726  0.40168225     0.09200
H1333       H  0.12664095  0.85326622  0.36298643     0.07000
H1334       H  0.10104807  0.85710361  0.38124146     0.08200
H1335       H  0.08726722  0.86463030  0.35978398     0.07300
H1336       H  0.07596867  0.70534521  0.37300128     0.02100
H1337       H  0.10066367  0.70632529  0.35418290     0.02600
H1338       H  0.05934956  0.71197641  0.35217802     0.06100
H1339       H  0.19550994  0.74167411  0.35340960     0.05100
H1340       H  0.17319147  0.77526908  0.35929567    -0.00700
H1341       H  0.15539185  0.74441142  0.34703113     0.00800
H1342       H  0.10705473  0.69534130  0.42366956     0.04500
H1343       H  0.14621417  0.69385557  0.43140494     0.06400
H1344       H  0.13084303  0.66249849  0.41836818     0.07300
C1345       C  0.38225715  0.77612922  0.35677393    -0.22300
C1346       C  0.38346414  0.76982635  0.37439812     0.09600
C1347       C  0.40564183  0.78502483  0.38466260     0.10000
C1348       C  0.42725334  0.80501244  0.37690159    -0.17300
C1349       C  0.42707395  0.81047880  0.35908774    -0.27700
C1350       C  0.40318586  0.79693120  0.34902454     0.18400
C1351       C  0.36229345  0.74609090  0.38170347     0.12300
C1352       C  0.40659322  0.77997211  0.40378555    -0.12000
H1353       H  0.44500268  0.81571099  0.38477869     0.12600
C1354       C  0.39804630  0.80457673  0.33034925    -0.22900
H1355       H  0.36465749  0.76486893  0.34902135     0.08300
C1356       C  0.33075006  0.75250104  0.38527348     0.04600
C1357       C  0.31169765  0.72878717  0.39187362    -0.20100
C1358       C  0.32362774  0.69895710  0.39506250    -0.12400
C1359       C  0.35522098  0.69251718  0.39123950     0.13300
C1360       C  0.37416571  0.71631255  0.38478544    -0.22800
C1361       C  0.31741899  0.78441323  0.38234809    -0.05900
H1362       H  0.28747545  0.73360368  0.39473663     0.14800
C1363       C  0.36953796  0.66065902  0.39302549    -0.16100
H1364       H  0.39834560  0.71145400  0.38180691     0.09200
H1365       H  0.37337315  0.81142176  0.32839039     0.07000
H1366       H  0.40305105  0.78382361  0.32240212     0.08200
H1367       H  0.41222400  0.82432446  0.32571989     0.07300
H1368       H  0.41131498  0.75517207  0.40667721     0.02100
H1369       H  0.38388406  0.78665287  0.40950315     0.02600
H1370       H  0.42504907  0.79409482  0.40995207     0.06100
H1371       H  0.29247876  0.78560220  0.38605298     0.05100
H1372       H  0.31933509  0.79074540  0.36857901    -0.00700
H1373       H  0.33041005  0.80162087  0.39012398     0.00800
H1374       H  0.37959323  0.65349677  0.38051917     0.04500
H1375       H  0.35269637  0.64246652  0.39681733     0.06400
H1376       H  0.38843985  0.66135100  0.40271039     0.07300
C1377       C  0.37597063  0.53385096  0.39546450    -0.22300
C1378       C  0.36725324  0.51997984  0.37999993     0.09600
C1379       C  0.33826163  0.52714170  0.37259600     0.10000
C1380       C  0.31868309  0.54856324  0.38074570    -0.17300
C1381       C  0.32737815  0.56305146  0.39618261    -0.27700
C1382       C  0.35649134  0.55535485  0.40369138     0.18400
C1383       C  0.38925825  0.49849522  0.37158373     0.12300
C1384       C  0.32825029  0.51250100  0.35597083    -0.12000
H1385       H  0.29645830  0.55412650  0.37493555     0.12600
C1386       C  0.36789452  0.57030255  0.41997116    -0.22900
H1387       H  0.39840065  0.52807620  0.40097708     0.08300
C1388       C  0.41349456  0.50964375  0.36103616     0.04600
C1389       C  0.43436583  0.98857210  0.35359862    -0.20100
C1390       C  0.43133387  0.95652227  0.35646790    -0.12400
C1391       C  0.40623915  0.94532161  0.36654808     0.13300
C1392       C  0.38576596  0.96661925  0.37411924    -0.22800
C1393       C  0.41766443  0.54390412  0.35784894    -0.05900
H1394       H  0.45354266  0.99712351  0.34587369     0.14800
C1395       C  0.39966536  0.91123422  0.36919209    -0.16100
H1396       H  0.36667903  0.95823108  0.38197676     0.09200
H1397       H  0.36846149  0.59592262  0.41838721     0.07000
H1398       H  0.39177792  0.56254632  0.42335145     0.08200
H1399       H  0.35243849  0.56391493  0.43083323     0.07300
H1400       H  0.32727692  0.98723170  0.35733980     0.02100
H1401       H  0.34523943  0.51827457  0.34570692     0.02600
H1402       H  0.30496424  0.52085706  0.35184796     0.06100
H1403       H  0.43772994  0.54865595  0.34923972     0.05100
H1404       H  0.42186666  0.55599965  0.37017951    -0.00700
H1405       H  0.39639992  0.55356811  0.35176525     0.00800
H1406       H  0.40237803  0.90523613  0.38296843     0.04500
H1407       H  0.41491608  0.89590091  0.36151707     0.06400
H1408       H  0.37537645  0.90614079  0.36525095     0.07300
C1409       C  0.13855764  0.51901361  0.39705607    -0.22300
C1410       C  0.13557782  0.51819472  0.37918382     0.09600
C1411       C  0.15420512  0.53766746  0.36890206     0.10000
C1412       C  0.17508900  0.55809993  0.37677977    -0.17300
C1413       C  0.17783965  0.55953060  0.39473831    -0.27700
C1414       C  0.15991343  0.53894199  0.40500837     0.18400
C1415       C  0.11276708  0.49670756  0.37147927     0.12300
C1416       C  0.15183957  0.53700832  0.34963158    -0.12000
H1417       H  0.18875327  0.57367263  0.36883786     0.12600
C1418       C  0.16334688  0.53619724  0.42420743    -0.22900
H1419       H  0.12451361  0.00353897  0.40487352     0.08300
C1420       C  0.11994667  0.96510893  0.36881030     0.04600
C1421       C  0.09741896  0.94564044  0.36151665    -0.20100
C1422       C  0.06801919  0.95712268  0.35692459    -0.12400
C1423       C  0.06072131  0.98870833  0.35998693     0.13300
C1424       C  0.08344536  0.00816321  0.36704474    -0.22800
C1425       C  0.15128108  0.95207022  0.37361821    -0.05900
H1426       H  0.10273591  0.92136432  0.35939091     0.14800
C1427       C  0.02891996  0.00241925  0.35676810    -0.16100
H1428       H  0.07801896  0.03237197  0.36940003     0.09200
H1429       H  0.16718837  0.51148271  0.42772617     0.07000
H1430       H  0.14173877  0.54442622  0.43056065     0.08200
H1431       H  0.18346883  0.54913354  0.42935131     0.07300
H1432       H  0.12788510  0.54337851  0.34562589     0.02100
H1433       H  0.15733503  0.51334908  0.34489571     0.02600
H1434       H  0.16827499  0.55357085  0.34350268     0.06100
H1435       H  0.15308605  0.92697394  0.37053738     0.05100
H1436       H  0.15516113  0.95486145  0.38760056    -0.00700
H1437       H  0.16981096  0.46466696  0.36642980     0.00800
H1438       H  0.01957720  0.01211154  0.36891334     0.04500
H1439       H  0.01177296  0.98531080  0.35205403     0.06400
H1440       H  0.03076864  0.02142904  0.34717402     0.07300
C1441       C  0.22202707  0.98012201  0.51404730    -0.22300
C1442       C  0.25057228  0.98939487  0.50711416     0.09600
C1443       C  0.27835156  0.97675502  0.51370066     0.10000
C1444       C  0.27693775  0.95504838  0.52716191    -0.17300
C1445       C  0.24830887  0.94530736  0.53422079    -0.27700
C1446       C  0.22033505  0.95816087  0.52737827     0.18400
C1447       C  0.25073902  0.51338984  0.49340311     0.12300
C1448       C  0.30947701  0.98586105  0.50633726    -0.12000
H1449       H  0.29848620  0.94540633  0.53203636     0.12600
C1450       C  0.18844358  0.94937782  0.53387842    -0.22900
H1451       H  0.20086065  0.99023694  0.50892565     0.08300
C1452       C  0.24239245  0.50628607  0.47634845     0.04600
C1453       C  0.24190097  0.53009211  0.46397391    -0.20100
C1454       C  0.24977086  0.56071219  0.46828779    -0.12400
C1455       C  0.25773834  0.56782148  0.48545267     0.13300
C1456       C  0.25827242  0.54399627  0.49773997    -0.22800
C1457       C  0.23426816  0.97354150  0.47114685    -0.05900
H1458       H  0.23567234  0.52476277  0.45083922     0.14800
C1459       C  0.26460316  0.60034806  0.49148490    -0.16100
H1460       H  0.26412338  0.54942524  0.51091902     0.09200
H1461       H  0.18391124  0.92443709  0.53137985     0.07000
H1462       H  0.16972297  0.96278725  0.52740445     0.08200
H1463       H  0.18671848  0.95421482  0.54778988     0.07300
H1464       H  0.31334912  0.51119443  0.50809275     0.02100
H1465       H  0.31013646  0.98029095  0.49244664     0.02600
H1466       H  0.32890666  0.97333302  0.51270593     0.06100
H1467       H  0.22886738  0.97194927  0.45725009     0.05100
H1468       H  0.21357161  0.96542960  0.47840878    -0.00700
H1469       H  0.25421814  0.95791889  0.47391340     0.00800
H1470       H  0.24812120  0.60665370  0.50189220     0.04500
H1471       H  0.26223263  0.61811564  0.48128952     0.06400
H1472       H  0.28869479  0.60140941  0.49657531     0.07300
C1473       C  0.26172873  0.74811189  0.47986785    -0.22300
C1474       C  0.24851015  0.73981383  0.49566834     0.09600
C1475       C  0.23551326  0.71003803  0.49785240     0.10000
C1476       C  0.23614855  0.68906509  0.48414434    -0.17300
C1477       C  0.24964469  0.69711635  0.46832334    -0.27700
C1478       C  0.26225659  0.72725786  0.46606869     0.18400
C1479       C  0.24786668  0.76295498  0.50965285     0.12300
C1480       C  0.22130795  0.70033592  0.51470627    -0.12000
H1481       H  0.22645831  0.66603244  0.48587134     0.12600
C1482       C  0.27521981  0.73881193  0.44922944    -0.22900
H1483       H  0.27127803  0.77123211  0.47822292     0.08300
C1484       C  0.27362056  0.76737701  0.52052840     0.04600
C1485       C  0.27198538  0.78986778  0.53348173    -0.20100
C1486       C  0.24513602  0.80811404  0.53583351    -0.12400
C1487       C  0.21922518  0.80344798  0.52484074     0.13300
C1488       C  0.22100764  0.78086732  0.51192535    -0.22800
C1489       C  0.30278780  0.74834591  0.51842208    -0.05900
H1490       H  0.29186684  0.79324193  0.54181100     0.14800
C1491       C  0.19005131  0.82280596  0.52609264    -0.16100
H1492       H  0.20141945  0.77726632  0.50341038     0.09200
H1493       H  0.30030967  0.74428758  0.45074563     0.07000
H1494       H  0.26272671  0.76028923  0.44535017     0.08200
H1495       H  0.27258706  0.72207071  0.43859660     0.07300
H1496       H  0.20147046  0.71581872  0.51787257     0.02100
H1497       H  0.23902448  0.70185113  0.52502096     0.02600
H1498       H  0.21254092  0.67609647  0.51430249     0.06100
H1499       H  0.32070527  0.75455866  0.52807217     0.05100
H1500       H  0.31280560  0.75232387  0.50547059    -0.00700
H1501       H  0.29724381  0.72332049  0.51996172     0.00800
H1502       H  0.17318496  0.81709642  0.51579122     0.04500
H1503       H  0.19595656  0.84781311  0.52486388     0.06400
H1504       H  0.17825708  0.81844031  0.53853496     0.07300
C1505       C  0.12428697  0.79273283  0.62024003    -0.22300
C1506       C  0.13570256  0.76260335  0.62269579     0.09600
C1507       C  0.16669788  0.75552562  0.61822353     0.10000
C1508       C  0.18587928  0.77909631  0.61162447    -0.17300
C1509       C  0.17446840  0.80932491  0.60913298    -0.27700
C1510       C  0.14328609  0.81631831  0.61361834     0.18400
C1511       C  0.11446188  0.73899336  0.62996540     0.12300
C1512       C  0.17935070  0.72313446  0.62032173    -0.12000
H1513       H  0.20976556  0.77385705  0.60818626     0.12600
C1514       C  0.12947477  0.84845851  0.61226791    -0.22900
H1515       H  0.10042860  0.79797358  0.62376112     0.08300
C1516       C  0.11074956  0.73537899  0.64782150     0.04600
C1517       C  0.08822932  0.71465124  0.65410475    -0.20100
C1518       C  0.06943503  0.69731474  0.64291699    -0.12400
C1519       C  0.07375063  0.70065949  0.62492956     0.13300
C1520       C  0.09621328  0.72152221  0.61874285    -0.22800
C1521       C  0.13032312  0.75370019  0.66019743    -0.05900
H1522       H  0.08516393  0.71210849  0.66783749     0.14800
C1523       C  0.05399148  0.68353125  0.61208485    -0.16100
H1524       H  0.09919930  0.72474907  0.60504383     0.09200
H1525       H  0.12083835  0.85581858  0.62505705     0.07000
H1526       H  0.10962077  0.84815300  0.60317139     0.08200
H1527       H  0.14625520  0.86627100  0.60789819     0.07300
H1528       H  0.16552623  0.70676186  0.61243562     0.02100
H1529       H  0.17795889  0.71595848  0.63398302     0.02600
H1530       H  0.20404540  0.72156751  0.61618378     0.06100
H1531       H  0.12453268  0.74805347  0.67373821     0.05100
H1532       H  0.12640030  0.77892518  0.65818515    -0.00700
H1533       H  0.15531882  0.74839199  0.65810447     0.00800
H1534       H  0.05943570  0.69058838  0.59869890     0.04500
H1535       H  0.02898734  0.68853424  0.61442516     0.06400
H1536       H  0.05832376  0.65819203  0.61306945     0.07300
C1537       C  0.38093195  0.72470778  0.64191369    -0.22300
C1538       C  0.39086825  0.74405523  0.62849020     0.09600
C1539       C  0.42211324  0.74310570  0.62300285     0.10000
C1540       C  0.44265999  0.72218104  0.63082325    -0.17300
C1541       C  0.43287563  0.70284029  0.64430445    -0.27700
C1542       C  0.40156317  0.70395571  0.64991260     0.18400
C1543       C  0.36865968  0.76642691  0.62096326     0.12300
C1544       C  0.43391425  0.76467043  0.60919401    -0.12000
H1545       H  0.46671473  0.72129023  0.62661694     0.12600
C1546       C  0.38886611  0.68311378  0.66383129    -0.22900
H1547       H  0.35690018  0.72577660  0.64613692     0.08300
C1548       C  0.35178737  0.75976489  0.60590356     0.04600
C1549       C  0.33185392  0.78246080  0.59901745    -0.20100
C1550       C  0.32796210  0.81122610  0.60715786    -0.12400
C1551       C  0.34494292  0.81773318  0.62230474     0.13300
C1552       C  0.36514568  0.79521295  0.62896111    -0.22800
C1553       C  0.35447176  0.72859914  0.59732083    -0.05900
H1554       H  0.31873366  0.77750464  0.58748105     0.14800
C1555       C  0.34271567  0.84870096  0.63123796    -0.16100
H1556       H  0.37843974  0.80006798  0.64045485     0.09200
H1557       H  0.36918361  0.66932539  0.65866630     0.07000
H1558       H  0.38026114  0.69749252  0.67463904     0.08200
H1559       H  0.40624981  0.66648698  0.66890993     0.07300
H1560       H  0.43062240  0.78913178  0.61326101     0.02100
H1561       H  0.42100258  0.76075802  0.59708729     0.02600
H1562       H  0.45906664  0.76102380  0.60657892     0.06100
H1563       H  0.33948094  0.72714034  0.58575775     0.05100
H1564       H  0.34721312  0.71006095  0.60640486    -0.00700
H1565       H  0.37887463  0.72434621  0.59331070     0.00800
H1566       H  0.31899337  0.85208634  0.63653677     0.04500
H1567       H  0.34819166  0.86771402  0.62206638     0.06400
H1568       H  0.35929576  0.85035559  0.64211439     0.07300
C1569       C  0.36171014  0.98721488  0.60573829    -0.22300
C1570       C  0.36320707  0.98946518  0.62362803     0.09600
C1571       C  0.34394227  0.97065095  0.63391763     0.10000
C1572       C  0.32422412  0.94912132  0.62605333    -0.17300
C1573       C  0.32305592  0.94605070  0.60808912    -0.27700
C1574       C  0.34184376  0.96576069  0.59777192     0.18400
C1575       C  0.38590152  0.51096502  0.63140483     0.12300
C1576       C  0.34414217  0.97336758  0.65319015    -0.12000
H1577       H  0.30996754  0.93422033  0.63406834     0.12600
C1578       C  0.34077149  0.96494634  0.57845157    -0.22900
H1579       H  0.37650842  0.00208423  0.59800280     0.08300
C1580       C  0.41574789  0.00043083  0.63629018     0.04600
C1581       C  0.43639926  0.52132452  0.64394821    -0.20100
C1582       C  0.42855220  0.55271123  0.64604833    -0.12400
C1583       C  0.39865390  0.56326583  0.64108230     0.13300
C1584       C  0.37771461  0.54215995  0.63373778    -0.22800
C1585       C  0.42578746  0.96734651  0.63329529    -0.05900
H1586       H  0.45935775  0.51335066  0.64768389     0.14800
C1587       C  0.38766534  0.59616115  0.64378967    -0.16100
H1588       H  0.35475519  0.55000812  0.62991657     0.09200
H1589       H  0.34972017  0.94237959  0.57371832     0.07000
H1590       H  0.35540191  0.98345852  0.57263934     0.08200
H1591       H  0.31649626  0.96849810  0.57397959     0.07300
H1592       H  0.33685397  0.49806933  0.65676769     0.02100
H1593       H  0.36768652  0.96819216  0.65826778     0.02600
H1594       H  0.32748315  0.95699583  0.65929198     0.06100
H1595       H  0.45000468  0.96319221  0.63771474     0.05100
H1596       H  0.42470226  0.96205182  0.61938395    -0.00700
H1597       H  0.41027099  0.95114606  0.64033507     0.00800
H1598       H  0.38269588  0.60716821  0.63119178     0.04500
H1599       H  0.40468520  0.61074931  0.65072291     0.06400
H1600       H  0.36596439  0.59595621  0.65154000     0.07300
C1601       C  0.07924236  0.50757946  0.62588320    -0.22300
C1602       C  0.10923226  0.50705044  0.63281587     0.09600
C1603       C  0.11663126  0.52626492  0.64683678     0.10000
C1604       C  0.09356240  0.54572715  0.65367878    -0.17300
C1605       C  0.06353858  0.54655333  0.64661224    -0.27700
C1606       C  0.05611494  0.52681196  0.63269797     0.18400
C1607       C  0.13217818  0.98544010  0.62528463     0.12300
C1608       C  0.14892645  0.52658547  0.65432327    -0.12000
H1609       H  0.09915648  0.56089230  0.66430649     0.12600
C1610       C  0.02393428  0.52440571  0.62506544    -0.22900
H1611       H  0.07385877  0.99258771  0.61507699     0.08300
C1612       C  0.13552605  0.95502170  0.63172239     0.04600
C1613       C  0.15641439  0.93475066  0.62371646    -0.20100
C1614       C  0.17327421  0.94388750  0.60911290    -0.12400
C1615       C  0.16991268  0.97441912  0.60267693     0.13300
C1616       C  0.14936916  0.99491911  0.61090863    -0.22800
C1617       C  0.11651547  0.94373389  0.64675659    -0.05900
H1618       H  0.15908731  0.91134343  0.62865363     0.14800
C1619       C  0.18842227  0.98567736  0.58748358    -0.16100
H1620       H  0.14635828  0.51836373  0.60609950     0.09200
H1621       H  0.01620235  0.00006448  0.62524704     0.07000
H1622       H  0.02455378  0.53214362  0.61147345     0.08200
H1623       H  0.00619653  0.53820406  0.63195290     0.07300
H1624       H  0.16592967  0.53359249  0.64430327     0.02100
H1625       H  0.15514008  0.50314651  0.65915921     0.02600
H1626       H  0.15080696  0.54315652  0.66515601     0.06100
H1627       H  0.12187836  0.91918960  0.65002467     0.05100
H1628       H  0.09136060  0.94532432  0.64363930    -0.00700
H1629       H  0.12137907  0.95811408  0.65821515     0.00800
H1630       H  0.18196396  0.97218601  0.57596760     0.04500
H1631       H  0.21368544  0.98286522  0.59004185     0.06400
H1632       H  0.18386400  0.51063951  0.58475318     0.07300
C1633       C  0.16286037  0.61898423  0.75537054    -0.22300
C1634       C  0.13447937  0.63376077  0.75859718     0.09600
C1635       C  0.12951264  0.64864870  0.77444961     0.10000
C1636       C  0.15328724  0.64839198  0.78680563    -0.17300
C1637       C  0.18171764  0.63330809  0.78366644    -0.27700
C1638       C  0.18673666  0.61883157  0.76756865     0.18400
C1639       C  0.11049964  0.63338120  0.74501116     0.12300
C1640       C  0.09919371  0.66477642  0.77826143    -0.12000
H1641       H  0.14945544  0.65946860  0.79909359     0.12600
C1642       C  0.21712239  0.60392714  0.76239445    -0.22900
H1643       H  0.16656167  0.60783013  0.74308091     0.08300
C1644       C  0.11231949  0.65340477  0.73072026     0.04600
C1645       C  0.08991944  0.65116077  0.71772547    -0.20100
C1646       C  0.06574668  0.62921773  0.71861769    -0.12400
C1647       C  0.06377602  0.60940519  0.73320227     0.13300
C1648       C  0.08630777  0.61176099  0.74615353    -0.22800
C1649       C  0.13777675  0.67730353  0.72927272    -0.05900
H1650       H  0.09147528  0.66653001  0.70672420     0.14800
C1651       C  0.03773960  0.58628958  0.73558136    -0.16100
H1652       H  0.08521036  0.59654081  0.75723918     0.09200
H1653       H  0.22554662  0.61472935  0.75030008     0.07000
H1654       H  0.21342986  0.57875838  0.76015517     0.08200
H1655       H  0.23590496  0.60667202  0.77193651     0.07300
H1656       H  0.07978302  0.64781185  0.77777133     0.02100
H1657       H  0.09505050  0.68335070  0.76862404     0.02600
H1658       H  0.09924783  0.67553009  0.79118854     0.06100
H1659       H  0.13546509  0.69150275  0.71742604     0.05100
H1660       H  0.16081893  0.66566523  0.72894998    -0.00700
H1661       H  0.13679395  0.69315603  0.74046116     0.00800
H1662       H  0.03911992  0.56804325  0.72559966     0.04500
H1663       H  0.01490819  0.59828784  0.73485433     0.06400
H1664       H  0.03903500  0.57445018  0.74823821     0.07300
C1665       C  0.33577373  0.64300501  0.75598573    -0.22300
C1666       C  0.36269704  0.62516242  0.75819790     0.09600
C1667       C  0.36641684  0.60732229  0.77329195     0.10000
C1668       C  0.34289985  0.60773995  0.78580980    -0.17300
C1669       C  0.31576671  0.62548143  0.78355813    -0.27700
C1670       C  0.31186855  0.64282793  0.76819723     0.18400
C1671       C  0.38628133  0.62523789  0.74431727     0.12300
C1672       C  0.39488808  0.58752147  0.77611285    -0.12000
H1673       H  0.34584013  0.59438173  0.79750716     0.12600
C1674       C  0.28251073  0.66026859  0.76364711    -0.22900
H1675       H  0.33303369  0.65662296  0.74435760     0.08300
C1676       C  0.38036137  0.61128931  0.72827389     0.04600
C1677       C  0.40324226  0.61250075  0.71544426    -0.20100
C1678       C  0.43192850  0.62713749  0.71830125    -0.12400
C1679       C  0.43814456  0.64035787  0.73457016     0.13300
C1680       C  0.41490396  0.63984526  0.74719898    -0.22800
C1681       C  0.35021830  0.59459502  0.72476580    -0.05900
H1682       H  0.39871878  0.60199788  0.70307634     0.14800
C1683       C  0.46930279  0.65377507  0.73950450    -0.16100
H1684       H  0.41936989  0.65045247  0.75954758     0.09200
H1685       H  0.27389394  0.65212105  0.75101503     0.07000
H1686       H  0.28764862  0.68546901  0.76269583     0.08200
H1687       H  0.26323630  0.65686060  0.77284760     0.07300
H1688       H  0.41596956  0.60232364  0.77666751     0.02100
H1689       H  0.39732140  0.57063960  0.76546524     0.02600
H1690       H  0.39347157  0.57428701  0.78833948     0.06100
H1691       H  0.35005813  0.58393791  0.71181353     0.05100
H1692       H  0.33039868  0.61104787  0.72543269    -0.00700
H1693       H  0.34680571  0.57582475  0.73437712     0.00800
H1694       H  0.46661676  0.67882110  0.74247485     0.04500
H1695       H  0.48738544  0.65121621  0.72950741     0.06400
H1696       H  0.47809111  0.64161982  0.75111550     0.07300
C1697       C  0.47476721  0.53494851  0.00753214    -0.22300
C1698       C  0.49928635  0.51361158  0.00694268     0.09600
C1699       C  0.02296293  0.51483346  0.01939162     0.10000
C1700       C  0.02155376  0.53753388  0.03225235    -0.17300
C1701       C  0.49691007  0.55898345  0.03299232    -0.27700
C1702       C  0.47332127  0.55786404  0.02024302     0.18400
C1703       C  0.49926806  0.99002606  0.99321800     0.12300
C1704       C  0.04937420  0.99192354  0.01920017    -0.12000
H1705       H  0.03966699  0.53833422  0.04190746     0.12600
C1706       C  0.44694137  0.58088445  0.01894759    -0.22900
H1707       H  0.45677867  0.53395918  0.99779925     0.08300
C1708       C  0.48229023  0.96220497  0.99487650     0.04600
C1709       C  0.48222070  0.94098706  0.98129371    -0.20100
C1710       C  0.49889318  0.94685230  0.96612712    -0.12400
C1711       C  0.01567086  0.97498065  0.96438121     0.13300
C1712       C  0.01574093  0.99616538  0.97803865    -0.22800
C1713       C  0.46450591  0.95482755  0.01104482    -0.05900
H1714       H  0.46950355  0.91938217  0.98263436     0.14800
C1715       C  0.03270111  0.98400493  0.94819407    -0.16100
H1716       H  0.02857328  0.51780481  0.97670641     0.09200
H1717       H  0.42443851  0.56863128  0.02072895     0.07000
H1718       H  0.44716470  0.59178467  0.00601775     0.08200
H1719       H  0.44821713  0.59997659  0.02831065     0.07300
H1720       H  0.06241832  0.99414138  0.00695945     0.02100
H1721       H  0.04021447  0.96791895  0.02038749     0.02600
H1722       H  0.06586216  0.99594934  0.02992236     0.06100
H1723       H  0.45277030  0.93190494  0.01028875     0.05100
H1724       H  0.44643239  0.97279932  0.01326472    -0.00700
H1725       H  0.48067405  0.95431843  0.02213572     0.00800
H1726       H  0.02367133  0.00663221  0.94347660     0.04500
H1727       H  0.02979343  0.96706988  0.93766682     0.06400
H1728       H  0.05792175  0.98643456  0.95095674     0.07300
C1729       C  0.48059181  0.78840555  0.99562815    -0.22300
C1730       C  0.00396264  0.76581810  0.99561323     0.09600
C1731       C  0.02652150  0.76577464  0.98246351     0.10000
C1732       C  0.02498539  0.78831960  0.96942571    -0.17300
C1733       C  0.50114228  0.81068883  0.96913894    -0.27700
C1734       C  0.47885137  0.81092602  0.98262209     0.18400
C1735       C  0.00350950  0.74170012  0.00918239     0.12300
C1736       C  0.05209360  0.74185807  0.98220218    -0.12000
H1737       H  0.04221902  0.78816872  0.95926270     0.12600
C1738       C  0.45370131  0.83529411  0.98380248    -0.22900
H1739       H  0.46349894  0.78824377  0.00586874     0.08300
C1740       C  0.01781692  0.74634207  0.02523914     0.04600
C1741       C  0.01658943  0.72263326  0.03764749    -0.20100
C1742       C  0.50063181  0.69477252  0.03448308    -0.12400
C1743       C  0.48599306  0.69041289  0.01839935     0.13300
C1744       C  0.48774485  0.71391946  0.00594173    -0.22800
C1745       C  0.03422807  0.77632451  0.02924090    -0.05900
H1746       H  0.02778875  0.72598489  0.04995214     0.14800
C1747       C  0.46943351  0.66066640  0.01403461    -0.16100
H1748       H  0.47675524  0.71068111  0.99356788     0.09200
H1749       H  0.44004902  0.83312215  0.99585363     0.07000
H1750       H  0.43712797  0.83282868  0.97299754     0.08200
H1751       H  0.46429543  0.85879603  0.98357516     0.07300
H1752       H  0.04186868  0.71825172  0.98136186     0.02100
H1753       H  0.06611053  0.74356733  0.99411070     0.02600
H1754       H  0.06793117  0.74516873  0.97107758     0.06100
H1755       H  0.04421043  0.77616853  0.04237316     0.05100
H1756       H  0.01753398  0.79594396  0.02833449    -0.00700
H1757       H  0.05347224  0.78013405  0.01996173     0.00800
H1758       H  0.44892248  0.65759274  0.02252139     0.04500
H1759       H  0.48560735  0.64074494  0.01560114     0.06400
H1760       H  0.46092350  0.66064763  0.00058947     0.07300
C1761       C  0.09805162  0.78158002  0.86975535    -0.22300
C1762       C  0.11608063  0.76402934  0.88106433     0.09600
C1763       C  0.11271977  0.76798285  0.89888601     0.10000
C1764       C  0.09129847  0.78987845  0.90505437    -0.17300
C1765       C  0.07324678  0.80802702  0.89377206    -0.27700
C1766       C  0.07667063  0.80355715  0.87576725     0.18400
C1767       C  0.13918589  0.74249113  0.87374927     0.12300
C1768       C  0.13197869  0.74931566  0.91132889    -0.12000
H1769       H  0.08884402  0.79294891  0.91877748     0.12600
C1770       C  0.05891846  0.82225687  0.86260460    -0.22900
H1771       H  0.10111065  0.77825285  0.85607687     0.08300
C1772       C  0.13122427  0.71179500  0.86939191     0.04600
C1773       C  0.15379842  0.69260428  0.86193200    -0.20100
C1774       C  0.18393635  0.70362810  0.85860292    -0.12400
C1775       C  0.19192521  0.73444663  0.86308880     0.13300
C1776       C  0.16923522  0.75357272  0.87047221    -0.22800
C1777       C  0.09893186  0.69943778  0.87254823    -0.05900
H1778       H  0.14785808  0.66895797  0.85854247     0.14800
C1779       C  0.22423378  0.74766629  0.86096794    -0.16100
H1780       H  0.17508800  0.77725454  0.87387443     0.09200
H1781       H  0.03363488  0.81733384  0.86366735     0.07000
H1782       H  0.06599700  0.81640342  0.84929394     0.08200
H1783       H  0.06340871  0.84740773  0.86445948     0.07300
H1784       H  0.15707421  0.75398664  0.90911836     0.02100
H1785       H  0.12744827  0.72418068  0.90950068     0.02600
H1786       H  0.12644450  0.75523096  0.92484763     0.06100
H1787       H  0.09666439  0.67490071  0.86839496     0.05100
H1788       H  0.08173029  0.71353152  0.86530056    -0.00700
H1789       H  0.09337564  0.70059822  0.88643501     0.00800
H1790       H  0.22346514  0.76773082  0.85200344     0.04500
H1791       H  0.24140978  0.73072074  0.85605972     0.06400
H1792       H  0.23287706  0.75580094  0.87359502     0.07300
C1793       C  0.35906822  0.70887518  0.87946532    -0.22300
C1794       C  0.36288268  0.73891923  0.87298383     0.09600
C1795       C  0.34689226  0.74805967  0.85802413     0.10000
C1796       C  0.32590449  0.72735756  0.85040579    -0.17300
C1797       C  0.32099167  0.69749579  0.85723306    -0.27700
C1798       C  0.33893597  0.68771494  0.87157100     0.18400
C1799       C  0.38396301  0.76041100  0.88201239     0.12300
C1800       C  0.35195238  0.77966059  0.85015314    -0.12000
H1801       H  0.31260446  0.73491402  0.83935031     0.12600
C1802       C  0.33850820  0.65509350  0.87865483    -0.22900
H1803       H  0.37221069  0.70177935  0.89068266     0.08300
C1804       C  0.37251693  0.78207528  0.89397803     0.04600
C1805       C  0.39313139  0.80337210  0.90138896    -0.20100
C1806       C  0.42499880  0.80303847  0.89733656    -0.12400
C1807       C  0.43675480  0.77947054  0.88641537     0.13300
C1808       C  0.41590247  0.75890531  0.87859984    -0.22800
C1809       C  0.33857828  0.78272733  0.89886672    -0.05900
H1810       H  0.38412550  0.82101232  0.90995045     0.14800
C1811       C  0.47102173  0.77453738  0.88311018    -0.16100
H1812       H  0.42462729  0.74140827  0.86985052     0.09200
H1813       H  0.32753460  0.65501786  0.89155142     0.07000
H1814       H  0.36276326  0.64644591  0.87987516     0.08200
H1815       H  0.32633328  0.63839333  0.87029537     0.07300
H1816       H  0.37683719  0.78240210  0.84661242     0.02100
H1817       H  0.34549022  0.79807400  0.85940896     0.02600
H1818       H  0.33775308  0.78298473  0.83839686     0.06100
H1819       H  0.33358710  0.80101653  0.90849574     0.05100
H1820       H  0.33183416  0.75997429  0.90447016    -0.00700
H1821       H  0.32400951  0.78736391  0.88740956     0.00800
H1822       H  0.47714696  0.74999991  0.88595085     0.04500
H1823       H  0.48619099  0.78897709  0.89131487     0.06400
H1824       H  0.47634907  0.77944832  0.86943217     0.07300
C1825       C  0.36620262  0.53562452  0.86511781    -0.22300
C1826       C  0.35550932  0.50727281  0.87172279     0.09600
C1827       C  0.32382152  0.99970055  0.87044152     0.10000
C1828       C  0.30305033  0.52081204  0.86298302    -0.17300
C1829       C  0.31362329  0.54939297  0.85661720    -0.27700
C1830       C  0.34561899  0.55683337  0.85749790     0.18400
C1831       C  0.37829596  0.98564014  0.87931697     0.12300
C1832       C  0.31175030  0.96914354  0.87712933    -0.12000
H1833       H  0.27846739  0.51529210  0.86224958     0.12600
C1834       C  0.35889648  0.58643363  0.85018804    -0.22900
H1835       H  0.39079137  0.54112471  0.86582623     0.08300
C1836       C  0.39579307  0.96534276  0.86900547     0.04600
C1837       C  0.41614969  0.94424111  0.87681730    -0.20100
C1838       C  0.41950063  0.94279255  0.89477728    -0.12400
C1839       C  0.40217355  0.96373979  0.90509578     0.13300
C1840       C  0.38178018  0.98488173  0.89716668    -0.22800
C1841       C  0.39263821  0.96569087  0.84975750    -0.05900
H1842       H  0.42915999  0.92838898  0.86876525     0.14800
C1843       C  0.40531469  0.96460865  0.92434670    -0.16100
H1844       H  0.36824263  0.00081290  0.90491320     0.09200
H1845       H  0.37635632  0.58070497  0.84017255     0.07000
H1846       H  0.37058467  0.59968640  0.86051675     0.08200
H1847       H  0.34103464  0.60157322  0.84422727     0.07300
H1848       H  0.31630740  0.96728475  0.89110451     0.02100
H1849       H  0.32359020  0.94973614  0.87042431     0.02600
H1850       H  0.28629280  0.96674754  0.87506555     0.06100
H1851       H  0.40782654  0.94806118  0.84360533     0.05100
H1852       H  0.39879308  0.48833003  0.84466961    -0.00700
H1853       H  0.36818283  0.96065587  0.84613235     0.00800
H1854       H  0.39144331  0.98374369  0.93005775     0.04500
H1855       H  0.43004642  0.96831989  0.92791216     0.06400
H1856       H  0.39673674  0.94257408  0.93003660     0.07300
C1857       C  0.08110329  0.98708896  0.87155453    -0.22300
C1858       C  0.11183409  0.98913000  0.87728269     0.09600
C1859       C  0.12186805  0.97054225  0.89110404     0.10000
C1860       C  0.10115158  0.94915211  0.89845324    -0.17300
C1861       C  0.07045307  0.94607874  0.89240838    -0.27700
C1862       C  0.06013214  0.96594683  0.87894634     0.18400
C1863       C  0.13302660  0.51127415  0.86878148     0.12300
C1864       C  0.15450321  0.47312975  0.89799725    -0.12000
H1865       H  0.10924729  0.93436798  0.90879641     0.12600
C1866       C  0.02706322  0.96576421  0.87244104    -0.22900
H1867       H  0.07361155  0.00202364  0.86112837     0.08300
C1868       C  0.15320721  0.00161087  0.85544325     0.04600
C1869       C  0.17405830  0.52318042  0.84842123    -0.20100
C1870       C  0.17536378  0.55390906  0.85436287    -0.12400
C1871       C  0.15367318  0.56389101  0.86692132     0.13300
C1872       C  0.13317806  0.54221418  0.87418668    -0.22800
C1873       C  0.15245869  0.96884426  0.84874413    -0.05900
H1874       H  0.19029829  0.51558632  0.83864192     0.14800
C1875       C  0.15060921  0.59720025  0.87258070    -0.16100
H1876       H  0.11705928  0.54951585  0.88410248     0.09200
H1877       H  0.02198714  0.94354349  0.86586405     0.07000
H1878       H  0.02285766  0.98466113  0.86299468     0.08200
H1879       H  0.01064835  0.96919197  0.88328631     0.07300
H1880       H  0.15847776  0.49712977  0.90265637     0.02100
H1881       H  0.17172068  0.46780727  0.88780984     0.02600
H1882       H  0.15857454  0.45688593  0.90885595     0.06100
H1883       H  0.16962366  0.96532394  0.83826448     0.05100
H1884       H  0.12894234  0.96363690  0.84362563    -0.00700
H1885       H  0.15793361  0.95218321  0.85918898     0.00800
H1886       H  0.12610937  0.60489552  0.87094678     0.04500
H1887       H  0.16510691  0.61339889  0.86498830     0.06400
H1888       H  0.15697987  0.59917624  0.88632698     0.07300
Fe1889     Fe  0.49644487  0.37554262  0.89383278     1.65800
Fe1890     Fe  0.95866419  0.37587137  0.93241129     1.73200
Fe1891     Fe  0.53868559  0.37721927  0.93104229     1.54400
O1892       O  0.55761674  0.34221235  0.91613439    -0.81500
O1893       O  0.97295903  0.41122458  0.94833339    -0.79900
O1894       O  0.53042107  0.34244575  0.89196725    -0.84100
O1895       O  0.52839932  0.41052781  0.89117553    -0.78900
O1896       O  0.52614701  0.34374718  0.94894200    -0.80700
O1897       O  0.93733494  0.40894296  0.91713490    -0.83400
C1898       C  0.55049165  0.42132671  0.90002853     0.97300
C1899       C  0.55244873  0.33219134  0.90109551     1.04800
O1900       O  0.99795056  0.37621959  0.91914083    -1.12400
O1901       O  0.93973736  0.33998091  0.91826168    -0.74800
O1902       O  0.96439626  0.34029867  0.89314118    -0.78300
O1903       O  0.55686076  0.41101294  0.91490325    -0.79000
C1904       C  0.94446328  0.32904214  0.90338208     0.96200
O1905       O  0.96228744  0.40868591  0.89222860    -0.77000
O1906       O  0.97439359  0.34315460  0.94959339    -0.82200
C1907       C  0.99898327  0.42235439  0.95292764     0.98900
C1908       C  0.00055021  0.33382640  0.95502319     1.04800
O1909       O  0.52490682  0.41235617  0.94737552    -0.77800
C1910       C  0.94106908  0.41894233  0.90196747     1.03100
Fe1911     Fe  0.74776581  0.12593938  0.85756117     1.65800
Fe1912     Fe  0.75030081  0.16729911  0.82035255     1.73200
Fe1913     Fe  0.74716459  0.08818397  0.81926813     1.54400
O1914       O  0.77678496  0.06482867  0.83586885    -0.81500
O1915       O  0.71219310  0.15694453  0.80524859    -0.79900
O1916       O  0.78426884  0.09521361  0.85861078    -0.84100
O1917       O  0.71550434  0.09042584  0.85877204    -0.78900
O1918       O  0.78532719  0.10012917  0.80461541    -0.80700
O1919       O  0.72073122  0.18939130  0.83745088    -0.83400
C1920       C  0.70106621  0.07372167  0.84803170     0.97300
C1921       C  0.79043661  0.07130427  0.84983433     1.04800
O1922       O  0.74838106  0.12712790  0.83236713    -1.12400
O1923       O  0.78885705  0.18113413  0.83412458    -0.74800
O1924       O  0.77968813  0.16145956  0.86005217    -0.78300
O1925       O  0.70861677  0.07237432  0.83232737    -0.79000
C1926       C  0.79527065  0.17861325  0.84996211     0.96200
O1927       O  0.71142438  0.15658085  0.85901335    -0.77000
O1928       O  0.78010713  0.15129687  0.80156432    -0.82200
C1929       C  0.70518137  0.13209736  0.79741145     0.98900
C1930       C  0.79235630  0.12561074  0.79737672     1.04800
O1931       O  0.71748431  0.10603663  0.80090736    -0.77800
C1932       C  0.70662331  0.18188691  0.85116889     1.03100
Fe1933     Fe  0.74956913  0.37638605  0.60867805     1.65800
Fe1934     Fe  0.70864165  0.37808920  0.57152903     1.73200
Fe1935     Fe  0.78803178  0.37720752  0.57041722     1.54400
O1936       O  0.80919406  0.40877187  0.58683557    -0.81500
O1937       O  0.72048383  0.34053374  0.55655410    -0.79900
O1938       O  0.77840056  0.41427183  0.60965225    -0.84100
O1939       O  0.78705471  0.34700108  0.61019133    -0.78900
O1940       O  0.77455197  0.41420670  0.55511291    -0.80700
O1941       O  0.68753000  0.34769526  0.58865549    -0.83400
C1942       C  0.80579131  0.33402896  0.59995542     0.97300
C1943       C  0.80217104  0.42190265  0.60091863     1.04800
O1944       O  0.74882993  0.37719382  0.58349515    -1.12400
O1945       O  0.69323360  0.41600036  0.58533434    -0.74800
O1946       O  0.71207155  0.40583289  0.61132034    -0.78300
O1947       O  0.80638608  0.34012967  0.58403291    -0.79000
C1948       C  0.69433492  0.42092424  0.60135283     0.96200
O1949       O  0.72095680  0.33824533  0.60988641    -0.77000
O1950       O  0.72354167  0.40839650  0.55265138    -0.82200
C1951       C  0.74564577  0.33284848  0.54913558     0.98900
C1952       C  0.74873675  0.42144153  0.54823927     1.04800
O1953       O  0.77159691  0.34565362  0.55253210    -0.77800
C1954       C  0.69561708  0.33308178  0.60211276     1.03100
Fe1955     Fe  0.49854017  0.12516264  0.64427474     1.65800
Fe1956     Fe  0.49834277  0.08738246  0.68253211     1.73200
Fe1957     Fe  0.49966356  0.16644934  0.68132594     1.54400
O1958       O  0.53101341  0.18604434  0.66395645    -0.81500
O1959       O  0.96088621  0.10125384  0.69699059    -0.79900
O1960       O  0.53751554  0.15243880  0.64260064    -0.84100
O1961       O  0.97010490  0.16341976  0.64166470    -0.78900
O1962       O  0.53689089  0.15371063  0.69641093    -0.80700
O1963       O  0.96760469  0.06582702  0.66589695    -0.83400
C1964       C  0.95611761  0.18172584  0.65175211     0.97300
C1965       C  0.54462852  0.17733321  0.65026223     1.04800
O1966       O  0.49886774  0.12636687  0.66942548    -1.12400
O1967       O  0.53596857  0.06969274  0.66941364    -0.74800
O1968       O  0.52696497  0.08663933  0.64287494    -0.78300
O1969       O  0.96211871  0.18321613  0.66764456    -0.79000
C1970       C  0.54088392  0.06894784  0.65339117     0.96200
O1971       O  0.95938865  0.09786621  0.64383839    -0.77000
O1972       O  0.52867148  0.10342772  0.70107052    -0.82200
C1973       C  0.95523442  0.12688168  0.70432292     0.98900
C1974       C  0.54246656  0.12868769  0.70449466     1.04800
O1975       O  0.96883292  0.15208309  0.70028050    -0.77800
C1976       C  0.95293193  0.07367439  0.65242268     1.03100
Fe1977     Fe  0.75006504  0.13026125  0.39515303     1.65800
Fe1978     Fe  0.78957244  0.13008039  0.43278022     1.73200
Fe1979     Fe  0.71042542  0.12813395  0.43279358     1.54400
O1980       O  0.69308872  0.16620015  0.41981818    -0.81500
O1981       O  0.77428559  0.09955454  0.45166494    -0.79900
O1982       O  0.71157199  0.15904703  0.39350272    -0.84100
O1983       O  0.72268778  0.09125995  0.39388297    -0.78900
O1984       O  0.72572281  0.15807836  0.45180922    -0.80700
O1985       O  0.80640746  0.09248542  0.41938846    -0.83400
C1986       C  0.69814734  0.08400385  0.40200773     0.97300
C1987       C  0.69347632  0.17271259  0.40394337     1.04800
O1988       O  0.75001491  0.12955382  0.42026608    -1.12400
O1989       O  0.81068366  0.16065633  0.41569372    -0.74800
O1990       O  0.77760295  0.16926540  0.39419451    -0.78300
O1991       O  0.68956859  0.09806411  0.41551544    -0.79000
C1992       C  0.80266571  0.17500098  0.40212347     0.96200
O1993       O  0.78856536  0.10157055  0.39311316    -0.77000
O1994       O  0.77608111  0.16767352  0.44725304    -0.82200
C1995       C  0.74935864  0.08467730  0.45475756     0.98900
C1996       C  0.75053042  0.17316104  0.45484636     1.04800
O1997       O  0.72405320  0.08991488  0.44691099    -0.77800
C1998       C  0.80630582  0.08705764  0.40341428     1.03100
Fe1999     Fe  0.00064115  0.38135132  0.35847038     1.65800
Fe2000     Fe  0.99787503  0.34017803  0.32098193     1.73200
Fe2001     Fe  0.99993349  0.41993359  0.31994268     1.54400
O2002       O  0.96470871  0.43917437  0.33443924    -0.81500
O2003       O  0.53169991  0.35308586  0.30343028    -0.79900
O2004       O  0.96806055  0.41632638  0.36007445    -0.84100
O2005       O  0.53658971  0.41273721  0.35945099    -0.78900
O2006       O  0.96641058  0.40574398  0.30269453    -0.80700
O2007       O  0.53277598  0.32047664  0.33568445    -0.83400
C2008       C  0.54477906  0.43531376  0.35005255     0.97300
C2009       C  0.95591757  0.43584474  0.34987543     1.04800
O2010       O  0.99958635  0.38049590  0.33310604    -1.12400
O2011       O  0.96361869  0.32233578  0.33697319    -0.74800
O2012       O  0.96444836  0.35045400  0.36083780    -0.78300
O2013       O  0.53322586  0.44051698  0.33534999    -0.79000
C2014       C  0.95295475  0.32906999  0.35170233     0.96200
O2015       O  0.53343225  0.34649586  0.36030025    -0.77000
O2016       O  0.96289989  0.35430597  0.30453657    -0.82200
C2017       C  0.54330376  0.37850154  0.29814838     0.98900
C2018       C  0.95423871  0.38016638  0.29833731     1.04800
O2019       O  0.53497342  0.40488702  0.30378610    -0.77800
C2020       C  0.54359127  0.32523245  0.35057757     1.03100
Fe2021     Fe  0.99993422  0.12449110  0.10759677     1.65800
Fe2022     Fe  0.53892037  0.12511898  0.06950467     1.73200
Fe2023     Fe  0.95954346  0.12552051  0.06998921     1.54400
O2024       O  0.93840192  0.09417571  0.08657413    -0.81500
O2025       O  0.52611060  0.16327641  0.05506770    -0.79900
O2026       O  0.96990357  0.08750794  0.10891294    -0.84100
O2027       O  0.96376862  0.15587143  0.10982883    -0.78900
O2028       O  0.97191724  0.08851739  0.05475333    -0.80700
O2029       O  0.56083792  0.15526942  0.08630950    -0.83400
C2030       C  0.94545748  0.16981734  0.09963164     0.97300
C2031       C  0.94594597  0.08028172  0.10035204     1.04800
O2032       O  0.99945639  0.12504987  0.08235473    -1.12400
O2033       O  0.55558597  0.08690936  0.08271478    -0.74800
O2034       O  0.53607409  0.09311366  0.10897892    -0.78300
O2035       O  0.94302663  0.16264494  0.08391837    -0.79000
C2036       C  0.55420547  0.07971655  0.09850113     0.96200
O2037       O  0.53025073  0.16127338  0.10900034    -0.77000
O2038       O  0.52276314  0.09522430  0.05068207    -0.82200
C2039       C  0.00053255  0.17024207  0.04789588     1.03700
C2040       C  0.99706307  0.08230603  0.04695923     1.04800
O2041       O  0.97505134  0.15680925  0.05157382    -0.77800
C2042       C  0.55433536  0.16836711  0.10042802     1.03100
Fe2043     Fe  0.74775466  0.37553414  0.14410548     1.65800
Fe2044     Fe  0.74889899  0.41541762  0.18182137     1.73200
Fe2045     Fe  0.75037982  0.33595222  0.18213899     1.54400
O2046       O  0.71636212  0.31568544  0.16703304    -0.81500
O2047       O  0.78723011  0.40328116  0.19634119    -0.79900
O2048       O  0.71133786  0.34464975  0.14346692    -0.84100
O2049       O  0.77943991  0.34024047  0.14162641    -0.78900
O2050       O  0.71535278  0.34877213  0.19891006    -0.80700
O2051       O  0.77868381  0.43710468  0.16470253    -0.83400
C2052       C  0.79286413  0.32082030  0.15128547     0.97300
C2053       C  0.70289846  0.32221868  0.15295964     1.04800
O2054       O  0.74906865  0.37557632  0.16938905    -1.12400
O2055       O  0.71036022  0.43135448  0.16869500    -0.74800
O2056       O  0.71557933  0.41088513  0.14276852    -0.78300
O2057       O  0.78567658  0.31783717  0.16701335    -0.79000
C2058       C  0.70211857  0.42913061  0.15313922     0.96200
O2059       O  0.78432348  0.40618164  0.14204284    -0.77000
O2060       O  0.71916198  0.40006140  0.20082873    -0.82200
C2061       C  0.79653211  0.37766233  0.20262462     0.98900
C2062       C  0.70765835  0.37441648  0.20566521     1.04800
O2063       O  0.78420752  0.35169569  0.19891438    -0.77800
C2064       C  0.79153959  0.43006746  0.15059314     1.03100
C2065       C  0.63259520  0.29105909  0.12881834    -0.22300
C2066       C  0.63558887  0.25917926  0.13199793     0.09600
C2067       C  0.65888117  0.24846994  0.14330467     0.10000
C2068       C  0.67967306  0.26982857  0.15050880    -0.17300
C2069       C  0.67745426  0.30175919  0.14691598    -0.27700
C2070       C  0.65252774  0.31262764  0.13656906     0.18400
C2071       C  0.61412511  0.23733265  0.12337309     0.12300
C2072       C  0.66178121  0.21453356  0.14780988    -0.12000
H2073       H  0.69836597  0.26136145  0.15859313     0.12600
C2074       C  0.64525214  0.34658950  0.13392628    -0.22900
H2075       H  0.61421397  0.29922054  0.12041590     0.08300
C2076       C  0.58269337  0.23466506  0.12830163     0.04600
C2077       C  0.56383237  0.21246163  0.12031623    -0.20100
C2078       C  0.57548695  0.19270615  0.10743894    -0.12400
C2079       C  0.60711688  0.19596645  0.10232765     0.13300
C2080       C  0.62582447  0.21836632  0.11032373    -0.22800
C2081       C  0.56919978  0.25467181  0.14228677    -0.05900
H2082       H  0.53982022  0.21038499  0.12436297     0.14800
C2083       C  0.62197274  0.17549740  0.08896978    -0.16100
H2084       H  0.65001967  0.22081830  0.10659637     0.09200
H2085       H  0.62037719  0.35087417  0.13701737     0.07000
H2086       H  0.64943862  0.35308428  0.12032822     0.08200
H2087       H  0.65879618  0.36212841  0.14236800     0.07300
H2088       H  0.66716383  0.20082285  0.13615932     0.02100
H2089       H  0.63960021  0.20614620  0.15348470     0.02600
H2090       H  0.68064430  0.21032558  0.15726411     0.06100
H2091       H  0.54445477  0.24888103  0.14490811     0.05100
H2092       H  0.57026660  0.27947442  0.13846063    -0.00700
H2093       H  0.58256357  0.25124947  0.15432399     0.00800
H2094       H  0.64708467  0.18077027  0.08723258     0.04500
H2095       H  0.61049973  0.17907565  0.07637437     0.06400
H2096       H  0.62011805  0.15083637  0.09296475     0.07300
C2097       C  0.91353190  0.23654261  0.12630984    -0.22300
C2098       C  0.88221936  0.23601961  0.12143668     0.09600
C2099       C  0.87216824  0.21516466  0.10870860     0.10000
C2100       C  0.89366911  0.19455576  0.10142432    -0.17300
C2101       C  0.92501020  0.19441880  0.10654622    -0.27700
C2102       C  0.93524324  0.21635852  0.11884981     0.18400
C2103       C  0.86039241  0.25798433  0.12959815     0.12300
C2104       C  0.83867685  0.21438747  0.10303189    -0.12000
H2105       H  0.88576398  0.17786750  0.09201208     0.12600
C2106       C  0.96884160  0.22014373  0.12398384    -0.22900
H2107       H  0.92114959  0.25315494  0.13584471     0.08300
C2108       C  0.84511257  0.25068126  0.14507259     0.04600
C2109       C  0.82375747  0.27188496  0.15199822    -0.20100
C2110       C  0.81716322  0.30025420  0.14374311    -0.12400
C2111       C  0.83329944  0.30769189  0.12829262     0.13300
C2112       C  0.85472889  0.28641428  0.12152221    -0.22800
C2113       C  0.85115156  0.22034224  0.15413562    -0.05900
H2114       H  0.81166745  0.26588089  0.16375312     0.14800
C2115       C  0.82863392  0.33792015  0.11880117    -0.16100
H2116       H  0.86691471  0.29173521  0.10968424     0.09200
H2117       H  0.97175284  0.21362462  0.13767614     0.07000
H2118       H  0.97585962  0.24477866  0.12229791     0.08200
H2119       H  0.98499685  0.20623765  0.11608209     0.07300
H2120       H  0.83201076  0.23729182  0.09759566     0.02100
H2121       H  0.82341750  0.20902333  0.11415062     0.02600
H2122       H  0.83467851  0.19648064  0.09305824     0.06100
H2123       H  0.83716976  0.21815449  0.16606723     0.05100
H2124       H  0.87613727  0.21867323  0.15762866    -0.00700
H2125       H  0.84505020  0.20070781  0.14558983     0.00800
H2126       H  0.84509527  0.34047190  0.10789040     0.04500
H2127       H  0.83254136  0.35770081  0.12759215     0.06400
H2128       H  0.80477096  0.33904225  0.11341739     0.07300
C2129       C  0.88653332  0.01491349  0.10442550    -0.22300
C2130       C  0.88205241  0.01437654  0.12220948     0.09600
C2131       C  0.89996605  0.03383743  0.13278609     0.10000
C2132       C  0.92116874  0.05448064  0.12523432    -0.17300
C2133       C  0.92525112  0.05579492  0.10733666    -0.27700
C2134       C  0.90846287  0.03481850  0.09683583     0.18400
C2135       C  0.85853856  0.49301316  0.12940874     0.12300
C2136       C  0.89647445  0.03296269  0.15201360    -0.12000
H2137       H  0.93413925  0.07019192  0.13336860     0.12600
C2138       C  0.91386306  0.03154516  0.07780837    -0.22900
H2139       H  0.87316805  0.49924622  0.09632354     0.08300
C2140       C  0.82727555  0.50217306  0.13159477     0.04600
C2141       C  0.80600246  0.48114046  0.13878005    -0.20100
C2142       C  0.81531509  0.45115306  0.14362806    -0.12400
C2143       C  0.84674655  0.44210692  0.14157942     0.13300
C2144       C  0.86796935  0.46320465  0.13441480    -0.22800
C2145       C  0.81662283  0.03407313  0.12643395    -0.05900
H2146       H  0.78188117  0.48794906  0.14042103     0.14800
C2147       C  0.85892918  0.41091439  0.14725331    -0.16100
H2148       H  0.89212985  0.45647462  0.13285118     0.09200
H2149       H  0.89282250  0.03924436  0.07072181     0.07000
H2150       H  0.91840604  0.00678470  0.07474699     0.08200
H2151       H  0.93428826  0.04464925  0.07309233     0.07300
H2152       H  0.90212149  0.00935921  0.15685732     0.02100
H2153       H  0.87219499  0.03884030  0.15563969     0.02600
H2154       H  0.91226668  0.04973583  0.15839149     0.06100
H2155       H  0.79141838  0.03745607  0.12900606     0.05100
H2156       H  0.82067676  0.03748063  0.11248997    -0.00700
H2157       H  0.82970233  0.05197774  0.13365483     0.00800
H2158       H  0.86902722  0.39858333  0.13607334     0.04500
H2159       H  0.84080207  0.39593438  0.15308364     0.06400
H2160       H  0.87748686  0.41428543  0.15696672     0.07300
C2161       C  0.64403621  0.49517335  0.14591408    -0.22300
C2162       C  0.63096129  0.48621932  0.13026868     0.09600
C2163       C  0.63960108  0.45784069  0.12277674     0.10000
C2164       C  0.66176320  0.43916684  0.13100007    -0.17300
C2165       C  0.67610997  0.44849720  0.14640361    -0.27700
C2166       C  0.66663732  0.47684073  0.15409329     0.18400
C2167       C  0.61048505  0.00838710  0.12126377     0.12300
C2168       C  0.62609139  0.44773548  0.10586754    -0.12000
H2169       H  0.66848099  0.41746277  0.12505600     0.12600
C2170       C  0.68096174  0.48887287  0.17041645    -0.22900
H2171       H  0.63721220  0.51722464  0.15143839     0.08300
C2172       C  0.57816449  0.00930392  0.12419380     0.04600
C2173       C  0.56032444  0.03235982  0.11610694    -0.20100
C2174       C  0.57416275  0.05463028  0.10528853    -0.12400
C2175       C  0.60673260  0.05356381  0.10240774     0.13300
C2176       C  0.62431949  0.03013743  0.11028351    -0.22800
C2177       C  0.56265763  0.48605458  0.13580410    -0.05900
H2178       H  0.53545462  0.03330760  0.11842951     0.14800
C2179       C  0.62428744  0.07748567  0.09206700    -0.16100
H2180       H  0.64930971  0.02945012  0.10831984     0.09200
H2181       H  0.67137602  0.51189062  0.17404907     0.07000
H2182       H  0.70647962  0.49159823  0.16872497     0.08200
H2183       H  0.67603018  0.47263675  0.18116117     0.07300
H2184       H  0.63150755  0.96477501  0.09588181     0.02100
H2185       H  0.60043068  0.44565011  0.10696273     0.02600
H2186       H  0.63547724  0.42490632  0.10175317     0.06100
H2187       H  0.53714924  0.48999105  0.13661877     0.05100
H2188       H  0.57249366  0.48804495  0.14891312    -0.00700
H2189       H  0.56660219  0.46215236  0.13100147     0.00800
H2190       H  0.64239823  0.08831838  0.10024705     0.04500
H2191       H  0.60955139  0.09647457  0.08709902     0.06400
H2192       H  0.63584529  0.06604290  0.08102211     0.07300
C2193       C  0.58671621  0.39102082  0.25620104    -0.22300
C2194       C  0.61389998  0.37387716  0.25914659     0.09600
C2195       C  0.61772895  0.35796502  0.27484975     0.10000
C2196       C  0.59423743  0.35976645  0.28736693    -0.17300
C2197       C  0.56714283  0.37726483  0.28452206    -0.27700
C2198       C  0.56306539  0.39262465  0.26858245     0.18400
C2199       C  0.63809135  0.37313318  0.24558497     0.12300
C2200       C  0.64651349  0.33901201  0.27831054    -0.12000
H2201       H  0.59712313  0.34771058  0.29948871     0.12600
C2202       C  0.53368526  0.40981847  0.26384414    -0.22900
H2203       H  0.58375303  0.40289223  0.24402397     0.08300
C2204       C  0.63613755  0.35258443  0.23158584     0.04600
C2205       C  0.65931616  0.35328281  0.21886602    -0.20100
C2206       C  0.68416480  0.37444881  0.21966984    -0.12400
C2207       C  0.68616953  0.39485632  0.23389404     0.13300
C2208       C  0.66307942  0.39385056  0.24664924    -0.22800
C2209       C  0.60957282  0.32996814  0.23010184    -0.05900
H2210       H  0.65772073  0.33757027  0.20807281     0.14800
C2211       C  0.71294378  0.41712741  0.23606963    -0.16100
H2212       H  0.66438092  0.40942725  0.25751781     0.09200
H2213       H  0.52384982  0.39972945  0.25193533     0.07000
H2214       H  0.53917149  0.43465017  0.26148307     0.08200
H2215       H  0.51531301  0.40845291  0.27378117     0.07300
H2216       H  0.66738702  0.35415565  0.27777326     0.02100
H2217       H  0.64875271  0.32048791  0.26851751     0.02600
H2218       H  0.64571329  0.32782842  0.29115860     0.06100
H2219       H  0.61168492  0.31534408  0.21845183     0.05100
H2220       H  0.58719818  0.34279705  0.22936154    -0.00700
H2221       H  0.60920549  0.31441520  0.24148181     0.00800
H2222       H  0.71251248  0.43496424  0.22577932     0.04500
H2223       H  0.73533727  0.40425273  0.23568093     0.06400
H2224       H  0.71171063  0.42954995  0.24851450     0.07300
C2225       C  0.88467219  0.40171210  0.27028049    -0.22300
C2226       C  0.88806038  0.38027718  0.25692289     0.09600
C2227       C  0.91257118  0.35853769  0.25745625     0.10000
C2228       C  0.93325669  0.35872985  0.27136567    -0.17300
C2229       C  0.93011080  0.38023232  0.28477530    -0.27700
C2230       C  0.90515385  0.40181135  0.28432350     0.18400
C2231       C  0.86465817  0.37972535  0.24296870     0.12300
C2232       C  0.91684767  0.33515130  0.24332356    -0.12000
H2233       H  0.95239213  0.34231697  0.27161792     0.12600
C2234       C  0.89843113  0.42431246  0.29864288    -0.22900
H2235       H  0.86542542  0.41799986  0.26993957     0.08300
C2236       C  0.83715584  0.36215010  0.24461119     0.04600
C2237       C  0.81595250  0.36139679  0.23097598    -0.20100
C2238       C  0.82138590  0.37803309  0.21574210    -0.12400
C2239       C  0.84926386  0.39537318  0.21399689     0.13300
C2240       C  0.87044092  0.39614169  0.22773155    -0.22800
C2241       C  0.83012806  0.34431570  0.26081213    -0.05900
H2242       H  0.79457285  0.34826472  0.23237475     0.14800
C2243       C  0.85809990  0.41229266  0.19774216    -0.16100
H2244       H  0.89186061  0.40924793  0.22645766     0.09200
H2245       H  0.87412513  0.42101644  0.30315351     0.07000
H2246       H  0.90106311  0.44846644  0.29384632     0.08200
H2247       H  0.91363287  0.42111333  0.30995353     0.07300
H2248       H  0.92064066  0.34737608  0.23094086     0.02100
H2249       H  0.89580723  0.32033543  0.24231070     0.02600
H2250       H  0.93717887  0.31980905  0.24571459     0.06100
H2251       H  0.80762511  0.33174371  0.25996306     0.05100
H2252       H  0.82878820  0.36054507  0.27181938    -0.00700
H2253       H  0.84875924  0.32699857  0.26324618     0.00800
H2254       H  0.85972447  0.43757216  0.20031953     0.04500
H2255       H  0.84146499  0.40861317  0.18712023     0.06400
H2256       H  0.88113117  0.40388063  0.19323816     0.07300
C2257       C  0.61475013  0.29415775  0.37412085    -0.22300
C2258       C  0.61022514  0.26210508  0.37248670     0.09600
C2259       C  0.58503270  0.25094960  0.36269579     0.10000
C2260       C  0.56431331  0.27219643  0.35516954    -0.17300
C2261       C  0.56823746  0.30435865  0.35718688    -0.27700
C2262       C  0.59443326  0.31548046  0.36634510     0.18400
C2263       C  0.63234446  0.24055941  0.38096146     0.12300
C2264       C  0.58005997  0.21663895  0.36020049    -0.12000
H2265       H  0.54444079  0.26362504  0.34806467     0.12600
C2266       C  0.60245390  0.34946846  0.36766719    -0.22900
H2267       H  0.63453991  0.30259388  0.38135303     0.08300
C2268       C  0.66181109  0.23427616  0.37383327     0.04600
C2269       C  0.68139066  0.21267669  0.38190367    -0.20100
C2270       C  0.67229623  0.19704931  0.39698620    -0.12400
C2271       C  0.64278373  0.20388960  0.40428202     0.13300
C2272       C  0.62328472  0.22562531  0.39615316    -0.22800
C2273       C  0.67231083  0.24984625  0.35749389    -0.05900
H2274       H  0.70393522  0.20779780  0.37626944     0.14800
C2275       C  0.63100153  0.18773332  0.42019398    -0.16100
H2276       H  0.60055889  0.23071270  0.40151128     0.09200
H2277       H  0.62661260  0.35321336  0.36302133     0.07000
H2278       H  0.60095376  0.35694394  0.38125504     0.08200
H2279       H  0.58723951  0.36454690  0.35979195     0.07300
H2280       H  0.57611772  0.20518287  0.37278479     0.02100
H2281       H  0.60088113  0.20628845  0.35399585     0.02600
H2282       H  0.55956554  0.21188487  0.35195240     0.06100
H2283       H  0.69578800  0.24184281  0.35348287     0.05100
H2284       H  0.67333468  0.27535580  0.35935417    -0.00700
H2285       H  0.65571484  0.24450079  0.34700902     0.00800
H2286       H  0.60690058  0.19496483  0.42346606     0.04500
H2287       H  0.64600112  0.19357453  0.43129831     0.06400
H2288       H  0.63084618  0.16222459  0.41818177     0.07300
C2289       C  0.88226957  0.27608847  0.35677251    -0.22300
C2290       C  0.88344465  0.26982974  0.37440182     0.09600
C2291       C  0.90558466  0.28507427  0.38466982     0.10000
C2292       C  0.92720965  0.30504444  0.37690648    -0.17300
C2293       C  0.92707328  0.31045413  0.35908705    -0.27700
C2294       C  0.90320334  0.29688193  0.34902095     0.18400
C2295       C  0.86228682  0.24608823  0.38171063     0.12300
C2296       C  0.90647993  0.28008935  0.40379906    -0.12000
H2297       H  0.94493489  0.31577374  0.38478714     0.12600
C2298       C  0.89808426  0.30449658  0.33034024    -0.22900
H2299       H  0.86469131  0.26480045  0.34901748     0.08300
C2300       C  0.83072643  0.25246711  0.38525066     0.04600
C2301       C  0.81169454  0.22875154  0.39186507    -0.20100
C2302       C  0.82365877  0.19894883  0.39509273    -0.12400
C2303       C  0.85526500  0.19253369  0.39129091     0.13300
C2304       C  0.87419223  0.21633455  0.38482803    -0.22800
C2305       C  0.81735330  0.28434723  0.38227675    -0.05900
H2306       H  0.78745908  0.23354453  0.39470618     0.14800
C2307       C  0.86961370  0.16069437  0.39310525    -0.16100
H2308       H  0.89838430  0.21149801  0.38186865     0.09200
H2309       H  0.87341391  0.31134182  0.32837070     0.07000
H2310       H  0.90309399  0.28372975  0.32240506     0.08200
H2311       H  0.91226836  0.32423527  0.32570533     0.07300
H2312       H  0.91120900  0.25530267  0.40672217     0.02100
H2313       H  0.88374823  0.28677505  0.40948781     0.02600
H2314       H  0.92490634  0.29424695  0.40996776     0.06100
H2315       H  0.79240231  0.28551268  0.38596193     0.05100
H2316       H  0.81929184  0.29062666  0.36850135    -0.00700
H2317       H  0.83029906  0.30160624  0.39004073     0.00800
H2318       H  0.87970051  0.15351753  0.38060914     0.04500
H2319       H  0.85278581  0.14248999  0.39689851     0.06400
H2320       H  0.88849664  0.16142701  0.40280029     0.07300
C2321       C  0.87602041  0.03381019  0.39549649    -0.22300
C2322       C  0.86736329  0.02006357  0.37998742     0.09600
C2323       C  0.83842739  0.02732431  0.37254932     0.10000
C2324       C  0.81883083  0.04869969  0.38071810    -0.17300
C2325       C  0.82746457  0.06307024  0.39619946    -0.27700
C2326       C  0.85653184  0.05528899  0.40373653     0.18400
C2327       C  0.88936386  0.99859375  0.37156187     0.12300
C2328       C  0.82850223  0.01285180  0.35586287    -0.12000
H2329       H  0.79664470  0.05432900  0.37488268     0.12600
C2330       C  0.86787991  0.07012001  0.42006070    -0.22900
H2331       H  0.89841184  0.02796122  0.40103296     0.08300
C2332       C  0.91372150  0.00976525  0.36110727     0.04600
C2333       C  0.93417246  0.48843684  0.35354656    -0.20100
C2334       C  0.93129462  0.45640583  0.35653262    -0.12400
C2335       C  0.90632662  0.44522348  0.36671730     0.13300
C2336       C  0.88581895  0.46652891  0.37425717    -0.22800
C2337       C  0.91804847  0.04404269  0.35804458    -0.05900
H2338       H  0.95325541  0.49697855  0.34574742     0.14800
C2339       C  0.89991501  0.41114321  0.36951005    -0.16100
H2340       H  0.86683062  0.45815665  0.38219220     0.09200
H2341       H  0.86849957  0.09574817  0.41852302     0.07000
H2342       H  0.89173344  0.06230332  0.42346276     0.08200
H2343       H  0.85235910  0.06369515  0.43088807     0.07300
H2344       H  0.82707476  0.48689953  0.35751233     0.02100
H2345       H  0.84556823  0.01869502  0.34564957     0.02600
H2346       H  0.80525713  0.02128255  0.35171624     0.06100
H2347       H  0.93819263  0.04880951  0.34949389     0.05100
H2348       H  0.92221249  0.05598553  0.37042453    -0.00700
H2349       H  0.89686454  0.05385692  0.35194831     0.00800
H2350       H  0.90277950  0.40533016  0.38330091     0.04500
H2351       H  0.91515011  0.39577243  0.36185041     0.06400
H2352       H  0.87561031  0.40590241  0.36565846     0.07300
C2353       C  0.63863262  0.01898291  0.39709314    -0.22300
C2354       C  0.63566721  0.01814316  0.37922056     0.09600
C2355       C  0.65431286  0.03759249  0.36893541     0.10000
C2356       C  0.67519789  0.05802652  0.37680990    -0.17300
C2357       C  0.67792727  0.05948543  0.39476843    -0.27700
C2358       C  0.65998595  0.03891698  0.40504272     0.18400
C2359       C  0.61283874  0.99667400  0.37151828     0.12300
C2360       C  0.65196110  0.03691156  0.34966461    -0.12000
H2361       H  0.68887464  0.07358346  0.36886506     0.12600
C2362       C  0.66339541  0.03620555  0.42424451    -0.22900
H2363       H  0.62445153  0.50356482  0.40485072     0.08300
C2364       C  0.61990896  0.46514428  0.36877973     0.04600
C2365       C  0.59739462  0.44565160  0.36149245    -0.20100
C2366       C  0.56797383  0.45710002  0.35691414    -0.12400
C2367       C  0.56064461  0.48867812  0.35998249     0.13300
C2368       C  0.58335611  0.50815658  0.36703403    -0.22800
C2369       C  0.65126517  0.45214082  0.37357360    -0.05900
H2370       H  0.60273802  0.42138198  0.35936162     0.14800
C2371       C  0.52882277  0.50235784  0.35678104    -0.16100
H2372       H  0.57790446  0.53235768  0.36939536     0.09200
H2373       H  0.66722431  0.01149614  0.42777849     0.07000
H2374       H  0.64178260  0.04445377  0.43058525     0.08200
H2375       H  0.68351575  0.04914465  0.42938816     0.07300
H2376       H  0.62801352  0.04329132  0.34565108     0.02100
H2377       H  0.65744605  0.01324333  0.34493869     0.02600
H2378       H  0.66841057  0.05345722  0.34353325     0.06100
H2379       H  0.65309764  0.42704896  0.37048696     0.05100
H2380       H  0.65515836  0.45492769  0.38755512    -0.00700
H2381       H  0.66985360  0.96455811  0.36650886     0.00800
H2382       H  0.51949418  0.51204228  0.36893144     0.04500
H2383       H  0.51167778  0.48523680  0.35207899     0.06400
H2384       H  0.53063587  0.52136943  0.34718595     0.07300
C2385       C  0.72202805  0.48031488  0.51412014    -0.22300
C2386       C  0.75057591  0.48953701  0.50717037     0.09600
C2387       C  0.77834491  0.47684542  0.51373805     0.10000
C2388       C  0.77691811  0.45512147  0.52719083    -0.17300
C2389       C  0.74828455  0.44541950  0.53426176    -0.27700
C2390       C  0.72032228  0.45834410  0.52744597     0.18400
C2391       C  0.75071219  0.01328250  0.49336936     0.12300
C2392       C  0.80947105  0.48591993  0.50636444    -0.12000
H2393       H  0.79845885  0.44543330  0.53204775     0.12600
C2394       C  0.68842951  0.44962580  0.53396906    -0.22900
H2395       H  0.70087022  0.49046948  0.50901157     0.08300
C2396       C  0.74232139  0.00622297  0.47631541     0.04600
C2397       C  0.74184963  0.03005284  0.46395430    -0.20100
C2398       C  0.74977233  0.06065349  0.46828242    -0.12400
C2399       C  0.75776864  0.06772051  0.48544785     0.13300
C2400       C  0.75829145  0.04387127  0.49772024    -0.22800
C2401       C  0.73444425  0.47357461  0.47120181    -0.05900
H2402       H  0.73559324  0.02475767  0.45081934     0.14800
C2403       C  0.76467283  0.10022871  0.49149703    -0.16100
H2404       H  0.76416905  0.04926835  0.51089974     0.09200
H2405       H  0.68382874  0.42470109  0.53146088     0.07000
H2406       H  0.66972243  0.46309459  0.52752073     0.08200
H2407       H  0.68676015  0.45443920  0.54788404     0.07300
H2408       H  0.81332702  0.01110386  0.50804698     0.02100
H2409       H  0.81010750  0.48035713  0.49247264     0.02600
H2410       H  0.82889459  0.47336758  0.51272421     0.06100
H2411       H  0.72908724  0.47193898  0.45730153     0.05100
H2412       H  0.71374477  0.46543777  0.47845306    -0.00700
H2413       H  0.75441883  0.45799990  0.47399683     0.00800
H2414       H  0.74821410  0.10652603  0.50191697     0.04500
H2415       H  0.76229747  0.11802214  0.48131511     0.06400
H2416       H  0.78877405  0.10125795  0.49657580     0.07300
C2417       C  0.76180054  0.24808934  0.47991374    -0.22300
C2418       C  0.74845039  0.23983894  0.49568833     0.09600
C2419       C  0.73537412  0.21009309  0.49785289     0.10000
C2420       C  0.73605521  0.18910538  0.48415117    -0.17300
C2421       C  0.74966797  0.19711373  0.46835314    -0.27700
C2422       C  0.76237220  0.22722322  0.46611979     0.18400
C2423       C  0.74778850  0.26298650  0.50967175     0.12300
C2424       C  0.72103743  0.20043732  0.51468098    -0.12000
H2425       H  0.72630770  0.16609330  0.48586573     0.12600
C2426       C  0.77548746  0.23873568  0.44930749    -0.22900
H2427       H  0.77142204  0.27118324  0.47828426     0.08300
C2428       C  0.77350001  0.26734818  0.52058559     0.04600
C2429       C  0.77185831  0.28984478  0.53353550    -0.20100
C2430       C  0.74504437  0.30815789  0.53584767    -0.12400
C2431       C  0.71917004  0.30354623  0.52482230     0.13300
C2432       C  0.72095882  0.28096067  0.51190814    -0.22800
C2433       C  0.80263143  0.24824687  0.51852348    -0.05900
H2434       H  0.79170893  0.29317358  0.54189279     0.14800
C2435       C  0.69003385  0.32296722  0.52604029    -0.16100
H2436       H  0.70140050  0.27740449  0.50336665     0.09200
H2437       H  0.80058414  0.24413080  0.45087641     0.07000
H2438       H  0.76309074  0.26025320  0.44540233     0.08200
H2439       H  0.77287283  0.22200684  0.43866783     0.07300
H2440       H  0.70121092  0.21596416  0.51780226     0.02100
H2441       H  0.73868822  0.20192719  0.52503107     0.02600
H2442       H  0.71222360  0.17621554  0.51426702     0.06100
H2443       H  0.82051400  0.25441300  0.52820237     0.05100
H2444       H  0.81272602  0.25220451  0.50558826    -0.00700
H2445       H  0.79701862  0.22323461  0.52005221     0.00800
H2446       H  0.67319392  0.31729205  0.51571992     0.04500
H2447       H  0.69599781  0.34796143  0.52481804     0.06400
H2448       H  0.67818550  0.31862939  0.53846998     0.07300
C2449       C  0.62427529  0.29270684  0.62020926    -0.22300
C2450       C  0.63573628  0.26260342  0.62269575     0.09600
C2451       C  0.66675985  0.25556915  0.61826455     0.10000
C2452       C  0.68592117  0.27915847  0.61167029    -0.17300
C2453       C  0.67446418  0.30936112  0.60914512    -0.27700
C2454       C  0.64325576  0.31631224  0.61359529     0.18400
C2455       C  0.61450641  0.23897474  0.62995001     0.12300
C2456       C  0.67946147  0.22320344  0.62039574    -0.12000
H2457       H  0.70982826  0.27395274  0.60826052     0.12600
C2458       C  0.62939413  0.34842752  0.61221773    -0.22900
H2459       H  0.60039498  0.29791227  0.62370130     0.08300
C2460       C  0.61077690  0.23534309  0.64780368     0.04600
C2461       C  0.58824721  0.21461483  0.65407192    -0.20100
C2462       C  0.56945261  0.19730730  0.64287167    -0.12400
C2463       C  0.57377901  0.20067310  0.62488716     0.13300
C2464       C  0.59625990  0.22152783  0.61871472    -0.22800
C2465       C  0.63032800  0.25365842  0.66019326    -0.05900
H2466       H  0.58516833  0.21205501  0.66780289     0.14800
C2467       C  0.55400733  0.18358324  0.61203268    -0.16100
H2468       H  0.59925533  0.22477509  0.60501773     0.09200
H2469       H  0.62068946  0.35578367  0.62499361     0.07000
H2470       H  0.60957951  0.34807883  0.60309570     0.08200
H2471       H  0.64616195  0.36626737  0.60786749     0.07300
H2472       H  0.66569116  0.20679128  0.61250601     0.02100
H2473       H  0.67803794  0.21605076  0.63405948     0.02600
H2474       H  0.70417251  0.22167048  0.61628364     0.06100
H2475       H  0.62451465  0.24800316  0.67373005     0.05100
H2476       H  0.62640514  0.27888411  0.65818362    -0.00700
H2477       H  0.65532786  0.24835564  0.65811365     0.00800
H2478       H  0.55946204  0.19065662  0.59865058     0.04500
H2479       H  0.52900735  0.18860612  0.61437364     0.06400
H2480       H  0.55831410  0.15823842  0.61300592     0.07300
C2481       C  0.88096937  0.22478079  0.64190108    -0.22300
C2482       C  0.89091224  0.24415696  0.62849193     0.09600
C2483       C  0.92216157  0.24322398  0.62301153     0.10000
C2484       C  0.94270700  0.22228775  0.63082441    -0.17300
C2485       C  0.93291341  0.20291151  0.64428828    -0.27700
C2486       C  0.90159696  0.20401343  0.64989077     0.18400
C2487       C  0.86869569  0.26651991  0.62096294     0.12300
C2488       C  0.93396209  0.26480516  0.60921087    -0.12000
H2489       H  0.96676465  0.22140826  0.62662245     0.12600
C2490       C  0.88889027  0.18313896  0.66379190    -0.22900
H2491       H  0.85693327  0.22583446  0.64611795     0.08300
C2492       C  0.85178262  0.25982202  0.60592207     0.04600
C2493       C  0.83181790  0.28249548  0.59904021    -0.20100
C2494       C  0.82794703  0.31128028  0.60716291    -0.12400
C2495       C  0.84498173  0.31782969  0.62228547     0.13300
C2496       C  0.86520627  0.29532714  0.62894089    -0.22800
C2497       C  0.85447116  0.22864688  0.59735048    -0.05900
H2498       H  0.81866416  0.27751012  0.58751934     0.14800
C2499       C  0.84278917  0.34882539  0.63119119    -0.16100
H2500       H  0.87853582  0.30021245  0.64041811     0.09200
H2501       H  0.86921275  0.16936127  0.65861254     0.07000
H2502       H  0.88027576  0.19749255  0.67460759     0.08200
H2503       H  0.90627044  0.16650158  0.66886343     0.07300
H2504       H  0.93066431  0.28926179  0.61328505     0.02100
H2505       H  0.92105142  0.26089980  0.59710264     0.02600
H2506       H  0.95911584  0.26116593  0.60659653     0.06100
H2507       H  0.83945131  0.22715884  0.58580006     0.05100
H2508       H  0.84725442  0.21011357  0.60644770    -0.00700
H2509       H  0.87886908  0.22441502  0.59332287     0.00800
H2510       H  0.81908454  0.35223100  0.63651003     0.04500
H2511       H  0.84823744  0.36780862  0.62199569     0.06400
H2512       H  0.85940639  0.35051159  0.64204884     0.07300
C2513       C  0.86194970  0.48703644  0.60576183    -0.22300
C2514       C  0.86313307  0.48955141  0.62364721     0.09600
C2515       C  0.84357457  0.47100679  0.63391442     0.10000
C2516       C  0.82387953  0.44946827  0.62604172    -0.17300
C2517       C  0.82301939  0.44611890  0.60808563    -0.27700
C2518       C  0.84210886  0.46557196  0.59778318     0.18400
C2519       C  0.88597866  0.01091131  0.63135098     0.12300
C2520       C  0.84345551  0.47400562  0.65317385    -0.12000
H2521       H  0.80940101  0.43477491  0.63405190     0.12600
C2522       C  0.84141347  0.46446781  0.57846193    -0.22900
H2523       H  0.87697953  0.50170004  0.59804228     0.08300
C2524       C  0.91555463  0.50038546  0.63649055     0.04600
C2525       C  0.93658827  0.02139268  0.64372559    -0.20100
C2526       C  0.92861241  0.05271445  0.64596097    -0.12400
C2527       C  0.89861734  0.06318514  0.64112285     0.13300
C2528       C  0.87767719  0.04204662  0.63380593    -0.22800
C2529       C  0.92544389  0.46720754  0.63366360    -0.05900
H2530       H  0.95962848  0.01349238  0.64735389     0.14800
C2531       C  0.88753953  0.09602115  0.64393326    -0.16100
H2532       H  0.85463409  0.04982406  0.63009543     0.09200
H2533       H  0.85033360  0.44178112  0.57388844     0.07000
H2534       H  0.85626066  0.48280934  0.57265165     0.08200
H2535       H  0.81724945  0.46808757  0.57382682     0.07300
H2536       H  0.83751295  0.99729192  0.65693835     0.02100
H2537       H  0.86688308  0.46876940  0.65839589     0.02600
H2538       H  0.82659741  0.45781963  0.65926045     0.06100
H2539       H  0.94957563  0.46297047  0.63819931     0.05100
H2540       H  0.92451409  0.46174035  0.61976946    -0.00700
H2541       H  0.90973640  0.45118996  0.64070353     0.00800
H2542       H  0.88234278  0.10707376  0.63137540     0.04500
H2543       H  0.90461003  0.11064140  0.65080836     0.06400
H2544       H  0.86595367  0.09569037  0.65177935     0.07300
C2545       C  0.57933824  0.00768686  0.62575783    -0.22300
C2546       C  0.60927279  0.00705037  0.63275976     0.09600
C2547       C  0.61660460  0.02617215  0.64683041     0.10000
C2548       C  0.59352166  0.04564090  0.65365369    -0.17300
C2549       C  0.56354961  0.04657112  0.64652167    -0.27700
C2550       C  0.55619500  0.02692356  0.63255412     0.18400
C2551       C  0.63210957  0.48543518  0.62533121     0.12300
C2552       C  0.64884880  0.02640401  0.65438567    -0.12000
H2553       H  0.59906846  0.06073208  0.66432105     0.12600
C2554       C  0.52406898  0.02460573  0.62484407    -0.22900
H2555       H  0.57368860  0.49239167  0.61524917     0.08300
C2556       C  0.63548706  0.45502337  0.63177201     0.04600
C2557       C  0.65637670  0.43476214  0.62375967    -0.20100
C2558       C  0.67323225  0.44391650  0.60915772    -0.12400
C2559       C  0.66986440  0.47445369  0.60273091     0.13300
C2560       C  0.64929861  0.49493349  0.61095949    -0.22800
C2561       C  0.61652883  0.44374640  0.64682825    -0.05900
H2562       H  0.65906229  0.41135398  0.62869373     0.14800
C2563       C  0.68839707  0.48574178  0.58755370    -0.16100
H2564       H  0.64642062  0.01833539  0.60604866     0.09200
H2565       H  0.51607525  0.49985066  0.62555016     0.07000
H2566       H  0.52479844  0.03243413  0.61126932     0.08200
H2567       H  0.50629217  0.03837041  0.63171989     0.07300
H2568       H  0.66593126  0.03343543  0.64441205     0.02100
H2569       H  0.65499935  0.00293526  0.65919975     0.02600
H2570       H  0.65067962  0.04291760  0.66524785     0.06100
H2571       H  0.62192406  0.41921361  0.65010639     0.05100
H2572       H  0.59136336  0.44530899  0.64373279    -0.00700
H2573       H  0.62141733  0.45815829  0.65827242     0.00800
H2574       H  0.68196495  0.47226313  0.57603002     0.04500
H2575       H  0.71365658  0.48293686  0.59012533     0.06400
H2576       H  0.68388249  0.01056659  0.58468347     0.07300
C2577       C  0.66291515  0.11893001  0.75528644    -0.22300
C2578       C  0.63455419  0.13375309  0.75850006     0.09600
C2579       C  0.62959737  0.14868332  0.77434020     0.10000
C2580       C  0.65335143  0.14839537  0.78670586    -0.17300
C2581       C  0.68175911  0.13325905  0.78358255    -0.27700
C2582       C  0.68678084  0.11876428  0.76749010     0.18400
C2583       C  0.61057801  0.13337055  0.74491587     0.12300
C2584       C  0.59931282  0.16489473  0.77812659    -0.12000
H2585       H  0.64952381  0.15949794  0.79898706     0.12600
C2586       C  0.71716084  0.10383675  0.76232481    -0.22900
H2587       H  0.66661110  0.10775499  0.74300216     0.08300
C2588       C  0.61237635  0.15341615  0.73063483     0.04600
C2589       C  0.58997526  0.15116803  0.71764126    -0.20100
C2590       C  0.56581634  0.12920748  0.71853050    -0.12400
C2591       C  0.56386228  0.10938198  0.73311031     0.13300
C2592       C  0.58640235  0.11173401  0.74605603    -0.22800
C2593       C  0.63781001  0.17734217  0.72919872    -0.05900
H2594       H  0.59151572  0.16655208  0.70664569     0.14800
C2595       C  0.53783175  0.08626098  0.73549307    -0.16100
H2596       H  0.58531976  0.09650397  0.75713807     0.09200
H2597       H  0.72559657  0.11462265  0.75022839     0.07000
H2598       H  0.71345576  0.07866781  0.76009258     0.08200
H2599       H  0.73594299  0.10658292  0.77186681     0.07300
H2600       H  0.57985877  0.14798004  0.77763237     0.02100
H2601       H  0.59523742  0.18346466  0.76847777     0.02600
H2602       H  0.59937034  0.17566992  0.79104819     0.06100
H2603       H  0.63548812  0.19155319  0.71735699     0.05100
H2604       H  0.66086387  0.16572638  0.72887586    -0.00700
H2605       H  0.63680688  0.19318058  0.74039277     0.00800
H2606       H  0.53920391  0.06802097  0.72550758     0.04500
H2607       H  0.51499797  0.09825691  0.73477647     0.06400
H2608       H  0.53914164  0.07441369  0.74814723     0.07300
C2609       C  0.83585245  0.14305162  0.75594819    -0.22300
C2610       C  0.86279712  0.12524597  0.75817650     0.09600
C2611       C  0.86651244  0.10741488  0.77327387     0.10000
C2612       C  0.84297208  0.10780422  0.78577921    -0.17300
C2613       C  0.81581752  0.12550684  0.78351095    -0.27700
C2614       C  0.81192277  0.14284100  0.76814590     0.18400
C2615       C  0.88638255  0.12529949  0.74429505     0.12300
C2616       C  0.89500307  0.08764908  0.77610927    -0.12000
H2617       H  0.84590909  0.09445222  0.79747894     0.12600
C2618       C  0.78254051  0.16022334  0.76357574    -0.22900
H2619       H  0.83310974  0.15665326  0.74431446     0.08300
C2620       C  0.88047179  0.11128155  0.72826949     0.04600
C2621       C  0.90334740  0.11245964  0.71543621    -0.20100
C2622       C  0.93202880  0.12711757  0.71827426    -0.12400
C2623       C  0.93824874  0.14038285  0.73453240     0.13300
C2624       C  0.91500512  0.13991856  0.74716155    -0.22800
C2625       C  0.85034314  0.09454499  0.72478582    -0.05900
H2626       H  0.89882129  0.10191577  0.70307937     0.14800
C2627       C  0.96941673  0.15378989  0.73945708    -0.16100
H2628       H  0.91947208  0.15056372  0.75949998     0.09200
H2629       H  0.77396128  0.15204922  0.75094114     0.07000
H2630       H  0.78763178  0.18543276  0.76262169     0.08200
H2631       H  0.76325669  0.15678538  0.77276712     0.07300
H2632       H  0.91606447  0.10247869  0.77667362     0.02100
H2633       H  0.89747536  0.07076970  0.76546306     0.02600
H2634       H  0.89358279  0.07441339  0.78833529     0.06100
H2635       H  0.85018991  0.08382987  0.71184828     0.05100
H2636       H  0.83050907  0.11098329  0.72543251    -0.00700
H2637       H  0.84695009  0.07581369  0.73442254     0.00800
H2638       H  0.96675373  0.17884899  0.74239998     0.04500
H2639       H  0.98750227  0.15117476  0.72946596     0.06400
H2640       H  0.97818819  0.14166681  0.75108226     0.07300
C2641       C  0.97461290  0.03488855  0.00759475    -0.22300
C2642       C  0.99912590  0.01354466  0.00700099     0.09600
C2643       C  0.52282763  0.01474728  0.01945565     0.10000
C2644       C  0.52144002  0.03745941  0.03231229    -0.17300
C2645       C  0.99679100  0.05893992  0.03304293    -0.27700
C2646       C  0.97319326  0.05782062  0.02029856     0.18400
C2647       C  0.99940639  0.49008853  0.99316221     0.12300
C2648       C  0.54950816  0.49197115  0.01916543    -0.12000
H2649       H  0.53956637  0.03826605  0.04195967     0.12600
C2650       C  0.94684098  0.08087000  0.01899626    -0.22900
H2651       H  0.95661943  0.03390463  0.99786446     0.08300
C2652       C  0.98239637  0.46229296  0.99484444     0.04600
C2653       C  0.98228970  0.44104413  0.98127765    -0.20100
C2654       C  0.99897365  0.44684145  0.96610725    -0.12400
C2655       C  0.51579509  0.47493825  0.96434912     0.13300
C2656       C  0.51589938  0.49614923  0.97799439    -0.22800
C2657       C  0.96462356  0.45497092  0.01102459    -0.05900
H2658       H  0.96953728  0.41946558  0.98263621     0.14800
C2659       C  0.53282869  0.48391621  0.94815491    -0.16100
H2660       H  0.52839905  0.01782192  0.97678341     0.09200
H2661       H  0.92432230  0.06864381  0.02077267     0.07000
H2662       H  0.94708789  0.09176873  0.00606606     0.08200
H2663       H  0.94813299  0.09995866  0.02836107     0.07300
H2664       H  0.56257058  0.49417327  0.00692988     0.02100
H2665       H  0.54033278  0.46797265  0.02035404     0.02600
H2666       H  0.56598281  0.49599398  0.02989422     0.06100
H2667       H  0.95286262  0.43205905  0.01028898     0.05100
H2668       H  0.94657249  0.47296678  0.01324000    -0.00700
H2669       H  0.98080567  0.45446842  0.02210944     0.00800
H2670       H  0.52385054  0.50656523  0.94343913     0.04500
H2671       H  0.52986092  0.46699109  0.93762826     0.06400
H2672       H  0.55805881  0.48628363  0.95090801     0.07300
C2673       C  0.98083801  0.28873602  0.99580509    -0.22300
C2674       C  0.50387135  0.26578440  0.99564282     0.09600
C2675       C  0.52615209  0.26539150  0.98234918     0.10000
C2676       C  0.52468247  0.28794170  0.96931101    -0.17300
C2677       C  0.00116296  0.31066479  0.96917776    -0.27700
C2678       C  0.97918706  0.31127847  0.98280691     0.18400
C2679       C  0.50336582  0.24169526  0.00923022     0.12300
C2680       C  0.55138755  0.24112941  0.98195228    -0.12000
H2681       H  0.54168606  0.28752831  0.95903331     0.12600
C2682       C  0.95452049  0.33610294  0.98414989    -0.22900
H2683       H  0.96396790  0.28885674  0.00615674     0.08300
C2684       C  0.51769692  0.24634051  0.02528077     0.04600
C2685       C  0.51648761  0.22263557  0.03769299    -0.20100
C2686       C  0.00053823  0.19477272  0.03453935    -0.12400
C2687       C  0.98586286  0.19041055  0.01846565     0.13300
C2688       C  0.98758144  0.21391556  0.00600577    -0.22800
C2689       C  0.53416517  0.27630172  0.02925952    -0.05900
H2690       H  0.52771042  0.22598964  0.04999091     0.14800
C2691       C  0.96930586  0.16065748  0.01411107    -0.16100
H2692       H  0.97657329  0.21066851  0.99363776     0.09200
H2693       H  0.94110086  0.33418316  0.99629262     0.07000
H2694       H  0.93767145  0.33395639  0.97345453     0.08200
H2695       H  0.96555181  0.35939969  0.98384594     0.07300
H2696       H  0.54083075  0.21766218  0.98117453     0.02100
H2697       H  0.56563984  0.24266412  0.99378445     0.02600
H2698       H  0.56706472  0.24421844  0.97073988     0.06100
H2699       H  0.54420101  0.27613685  0.04237930     0.05100
H2700       H  0.51749811  0.29594635  0.02837324    -0.00700
H2701       H  0.55337598  0.28007341  0.01995317     0.00800
H2702       H  0.94880759  0.15758009  0.02260683     0.04500
H2703       H  0.98548858  0.14074164  0.01567188     0.06400
H2704       H  0.96077586  0.16063141  0.00066993     0.07300
C2705       C  0.59810948  0.28164032  0.86971941    -0.22300
C2706       C  0.61610586  0.26402818  0.88101478     0.09600
C2707       C  0.61272850  0.26791949  0.89883968     0.10000
C2708       C  0.59132014  0.28981200  0.90502569    -0.17300
C2709       C  0.57329092  0.30801416  0.89375796    -0.27700
C2710       C  0.57673388  0.30360760  0.87574868     0.18400
C2711       C  0.63917521  0.24246716  0.87368516     0.12300
C2712       C  0.63195280  0.24918357  0.91126766    -0.12000
H2713       H  0.58885363  0.29283194  0.91875158     0.12600
C2714       C  0.55899585  0.32235137  0.86259912    -0.22900
H2715       H  0.60117950  0.27835854  0.85603826     0.08300
C2716       C  0.63116178  0.21179241  0.86930955     0.04600
C2717       C  0.65370886  0.19257176  0.86184658    -0.20100
C2718       C  0.68387191  0.20354629  0.85853606    -0.12400
C2719       C  0.69191555  0.23433727  0.86304879     0.13300
C2720       C  0.66925022  0.25349643  0.87042803    -0.22800
C2721       C  0.59884274  0.19949124  0.87245063    -0.05900
H2722       H  0.64772830  0.16894366  0.85844070     0.14800
C2723       C  0.72426126  0.24748764  0.86096607    -0.16100
H2724       H  0.67514576  0.27715880  0.87384874     0.09200
H2725       H  0.53370995  0.31743317  0.86365348     0.07000
H2726       H  0.56607858  0.31653330  0.84928439     0.08200
H2727       H  0.56349448  0.34749527  0.86447574     0.07300
H2728       H  0.65705593  0.25383605  0.90907154     0.02100
H2729       H  0.62739839  0.22406063  0.90940830     0.02600
H2730       H  0.62640873  0.25505195  0.92479142     0.06100
H2731       H  0.59653348  0.17496435  0.86828643     0.05100
H2732       H  0.58167518  0.21362782  0.86520378    -0.00700
H2733       H  0.59327364  0.20064283  0.88633610     0.00800
H2734       H  0.72356907  0.26756320  0.85200742     0.04500
H2735       H  0.74141863  0.23051015  0.85607211     0.06400
H2736       H  0.73287933  0.25558803  0.87360516     0.07300
C2737       C  0.85880864  0.20912748  0.87945283    -0.22300
C2738       C  0.86270903  0.23910685  0.87289572     0.09600
C2739       C  0.84679703  0.24814665  0.85789262     0.10000
C2740       C  0.82581667  0.22740707  0.85029732    -0.17300
C2741       C  0.82083790  0.19760219  0.85718947    -0.27700
C2742       C  0.83869100  0.18792416  0.87158344     0.18400
C2743       C  0.88381051  0.26061941  0.88189536     0.12300
C2744       C  0.85193598  0.27967542  0.84994941    -0.12000
H2745       H  0.81258392  0.23488798  0.83920186     0.12600
C2746       C  0.83819366  0.15536456  0.87875491    -0.22900
H2747       H  0.87188594  0.20210964  0.89070822     0.08300
C2748       C  0.87238988  0.28233624  0.89383893     0.04600
C2749       C  0.89305439  0.30354070  0.90128869    -0.20100
C2750       C  0.92494349  0.30307510  0.89729210    -0.12400
C2751       C  0.93665408  0.27949221  0.88636555     0.13300
C2752       C  0.91575799  0.25900921  0.87851877    -0.22800
C2753       C  0.83842625  0.28313802  0.89866682    -0.05900
H2754       H  0.88407581  0.32121248  0.90983903     0.14800
C2755       C  0.97091425  0.27445456  0.88308663    -0.16100
H2756       H  0.92445672  0.24147954  0.86978145     0.09200
H2757       H  0.82712381  0.15541053  0.89162654     0.07000
H2758       H  0.86243449  0.14671411  0.88005413     0.08200
H2759       H  0.82608281  0.13858925  0.87041333     0.07300
H2760       H  0.87683858  0.28235097  0.84643164     0.02100
H2761       H  0.84546546  0.29817303  0.85915212     0.02600
H2762       H  0.83778753  0.28292496  0.83816820     0.06100
H2763       H  0.83345712  0.30145658  0.90828223     0.05100
H2764       H  0.83154880  0.26041921  0.90426309    -0.00700
H2765       H  0.82394764  0.28783005  0.88718165     0.00800
H2766       H  0.97695188  0.24989139  0.88591617     0.04500
H2767       H  0.98610847  0.28882874  0.89131264     0.06400
H2768       H  0.97629480  0.27937709  0.86941607     0.07300
C2769       C  0.86628824  0.03582995  0.86508805    -0.22300
C2770       C  0.85563806  0.00742382  0.87164321     0.09600
C2771       C  0.82367892  0.49965167  0.87058279     0.10000
C2772       C  0.80318443  0.02086319  0.86285177    -0.17300
C2773       C  0.81371079  0.04949841  0.85654005    -0.27700
C2774       C  0.84568279  0.05701824  0.85746911     0.18400
C2775       C  0.87816773  0.48548615  0.87938907     0.12300
C2776       C  0.81156481  0.46915826  0.87733574    -0.12000
H2777       H  0.77861883  0.01528403  0.86207930     0.12600
C2778       C  0.85891307  0.08668220  0.85021094    -0.22900
H2779       H  0.89085956  0.04138932  0.86583522     0.08300
C2780       C  0.89550389  0.46505202  0.86907694     0.04600
C2781       C  0.91589388  0.44397098  0.87687954    -0.20100
C2782       C  0.91942254  0.44266582  0.89483115    -0.12400
C2783       C  0.90222785  0.46371746  0.90515070     0.13300
C2784       C  0.88181574  0.48485343  0.89723048    -0.22800
C2785       C  0.89214501  0.46523689  0.84983940    -0.05900
H2786       H  0.92879039  0.42802231  0.86883009     0.14800
C2787       C  0.90553108  0.46469833  0.92439150    -0.16100
H2788       H  0.86839289  0.50087859  0.90497806     0.09200
H2789       H  0.87644588  0.08103774  0.84021924     0.07000
H2790       H  0.87049995  0.09993958  0.86057298     0.08200
H2791       H  0.84104064  0.10178725  0.84423324     0.07300
H2792       H  0.81619771  0.46735458  0.89130552     0.02100
H2793       H  0.82331527  0.44968702  0.87063973     0.02600
H2794       H  0.78608954  0.46681949  0.87531888     0.06100
H2795       H  0.90722531  0.44751609  0.84368661     0.05100
H2796       H  0.89929649  0.98886795  0.84466959    -0.00700
H2797       H  0.86763971  0.46022623  0.84630712     0.00800
H2798       H  0.89174588  0.48389628  0.93010115     0.04500
H2799       H  0.93029995  0.46837815  0.92788837     0.06400
H2800       H  0.89695494  0.44271530  0.93014344     0.07300
C2801       C  0.58096808  0.48727669  0.87168151    -0.22300
C2802       C  0.61176191  0.48918184  0.87732337     0.09600
C2803       C  0.62189388  0.47040125  0.89104355     0.10000
C2804       C  0.60119848  0.44898084  0.89838328    -0.17300
C2805       C  0.57042923  0.44605779  0.89242679    -0.27700
C2806       C  0.56002291  0.46609335  0.87906128     0.18400
C2807       C  0.63311512  0.01119619  0.86872034     0.12300
C2808       C  0.65438377  0.97347404  0.89814790    -0.12000
H2809       H  0.60936227  0.43405627  0.90864852     0.12600
C2810       C  0.52689382  0.46603943  0.87264856    -0.22900
H2811       H  0.57340688  0.50234676  0.86133031     0.08300
C2812       C  0.65295530  0.50179355  0.85540498     0.04600
C2813       C  0.67431188  0.02299497  0.84844256    -0.20100
C2814       C  0.67545539  0.05379287  0.85428051    -0.12400
C2815       C  0.65362073  0.06385120  0.86674161     0.13300
C2816       C  0.63311498  0.04219856  0.87401729    -0.22800
C2817       C  0.65204535  0.46910529  0.84859631    -0.05900
H2818       H  0.69067208  0.01534771  0.83873673     0.14800
C2819       C  0.65042331  0.09721375  0.87228118    -0.16100
H2820       H  0.61687457  0.04956536  0.88385785     0.09200
H2821       H  0.52171518  0.44389504  0.86601771     0.07000
H2822       H  0.52263778  0.48503957  0.86327258     0.08200
H2823       H  0.51058557  0.46938514  0.88355035     0.07300
H2824       H  0.65823639  0.99754468  0.90272734     0.02100
H2825       H  0.67172834  0.96807396  0.88803862     0.02600
H2826       H  0.65838211  0.95737992  0.90908249     0.06100
H2827       H  0.66909981  0.46565193  0.83805525     0.05100
H2828       H  0.62846503  0.46402441  0.84352813    -0.00700
H2829       H  0.65756956  0.45231069  0.85896764     0.00800
H2830       H  0.62593539  0.10485201  0.87051760     0.04500
H2831       H  0.66501230  0.11335153  0.86470220     0.06400
H2832       H  0.65659728  0.09934436  0.88604747     0.07300
Fe2833     Fe  0.49643696  0.87557783  0.89381481     1.65800
Fe2834     Fe  0.95863890  0.87595512  0.93237991     1.73200
Fe2835     Fe  0.53865405  0.87730260  0.93103427     1.54400
O2836       O  0.55763510  0.84235523  0.91609944    -0.81500
O2837       O  0.97289486  0.91134580  0.94828080    -0.79900
O2838       O  0.53032284  0.84239317  0.89197144    -0.84100
O2839       O  0.52848981  0.91047482  0.89114488    -0.78900
O2840       O  0.52612200  0.84376916  0.94889787    -0.80700
O2841       O  0.93730407  0.90898141  0.91706927    -0.83400
C2842       C  0.55050717  0.92136744  0.90002020     0.97300
C2843       C  0.55240721  0.83223027  0.90108798     1.04800
O2844       O  0.99793265  0.87629079  0.91911783    -1.12400
O2845       O  0.93975395  0.84000828  0.91826942    -0.74800
O2846       O  0.96432069  0.84038090  0.89312446    -0.78300
O2847       O  0.55679632  0.91115789  0.91492681    -0.79000
C2848       C  0.94445181  0.82907723  0.90338785     0.96200
O2849       O  0.96236557  0.90879757  0.89219573    -0.77000
O2850       O  0.97438381  0.84328345  0.94958222    -0.82200
C2851       C  0.99891815  0.92241202  0.95291941     0.98900
C2852       C  0.00052943  0.83389153  0.95499364     1.04800
O2853       O  0.52484549  0.91237505  0.94740460    -0.77800
C2854       C  0.94110712  0.91903039  0.90191583     1.03100
Fe2855     Fe  0.74779507  0.62596524  0.85763362     1.65800
Fe2856     Fe  0.75032860  0.66732981  0.82041404     1.73200
Fe2857     Fe  0.74713356  0.58820966  0.81933849     1.54400
O2858       O  0.77676100  0.56481880  0.83592556    -0.81500
O2859       O  0.71220343  0.65699619  0.80531076    -0.79900
O2860       O  0.78421142  0.59513670  0.85869605    -0.84100
O2861       O  0.71543864  0.59053756  0.85884775    -0.78900
O2862       O  0.78528489  0.60012731  0.80466997    -0.80700
O2863       O  0.72077857  0.68946118  0.83750390    -0.83400
C2864       C  0.70100049  0.57382400  0.84811154     0.97300
C2865       C  0.79037966  0.57124258  0.84990825     1.04800
O2866       O  0.74839325  0.62715650  0.83243641    -1.12400
O2867       O  0.78889837  0.68114814  0.83418405    -0.74800
O2868       O  0.77982618  0.66138617  0.86010510    -0.78300
O2869       O  0.70858470  0.57243384  0.83241241    -0.79000
C2870       C  0.79537901  0.67855936  0.85001091     0.96200
O2871       O  0.71153753  0.65670624  0.85909953    -0.77000
O2872       O  0.78011628  0.65130173  0.80162576    -0.82200
C2873       C  0.70515756  0.63214555  0.79748511     0.98900
C2874       C  0.79233030  0.62560390  0.79743050     1.04800
O2875       O  0.71744268  0.60607878  0.80098623    -0.77800
C2876       C  0.70670870  0.68198967  0.85123793     1.03100
Fe2877     Fe  0.74959198  0.87633194  0.60866706     1.65800
Fe2878     Fe  0.70868833  0.87800941  0.57151162     1.73200
Fe2879     Fe  0.78807581  0.87717792  0.57040923     1.54400
O2880       O  0.80921801  0.90874792  0.58682932    -0.81500
O2881       O  0.72055859  0.84043695  0.55655926    -0.79900
O2882       O  0.77843543  0.91421166  0.60965710    -0.84100
O2883       O  0.78706962  0.84694349  0.61018195    -0.78900
O2884       O  0.77458462  0.91417224  0.55510499    -0.80700
O2885       O  0.68755558  0.84764097  0.58864269    -0.83400
C2886       C  0.80582282  0.83398800  0.59994900     0.97300
C2887       C  0.80219587  0.92185547  0.60091893     1.04800
O2888       O  0.74886986  0.87714223  0.58348394    -1.12400
O2889       O  0.69327246  0.91593800  0.58530026    -0.74800
O2890       O  0.71209527  0.90578779  0.61129321    -0.78300
O2891       O  0.80643968  0.84010700  0.58402825    -0.79000
C2892       C  0.69436752  0.92087567  0.60131811     0.96200
O2893       O  0.72097714  0.83818728  0.60987299    -0.77000
O2894       O  0.72358901  0.90828236  0.55262029    -0.82200
C2895       C  0.74572046  0.83278801  0.54912918     0.98900
C2896       C  0.74877100  0.92135551  0.54821358     1.04800
O2897       O  0.77165988  0.84562451  0.55251768    -0.77800
C2898       C  0.69563595  0.83302821  0.60210048     1.03100
Fe2899     Fe  0.49853925  0.62513199  0.64433519     1.65800
Fe2900     Fe  0.49830531  0.58737931  0.68260457     1.73200
Fe2901     Fe  0.49962201  0.66645434  0.68137811     1.54400
O2902       O  0.53101059  0.68603777  0.66402228    -0.81500
O2903       O  0.96085198  0.60125988  0.69705233    -0.79900
O2904       O  0.53749320  0.65244532  0.64265858    -0.84100
O2905       O  0.97007448  0.66335282  0.64170597    -0.78900
O2906       O  0.53681681  0.65372249  0.69649402    -0.80700
O2907       O  0.96756878  0.56580992  0.66597932    -0.83400
C2908       C  0.95609687  0.68168533  0.65178162     0.97300
C2909       C  0.54461243  0.67733757  0.65032156     1.04800
O2910       O  0.49884360  0.62635782  0.66948704    -1.12400
O2911       O  0.53593527  0.56966962  0.66949856    -0.74800
O2912       O  0.52698816  0.58663224  0.64295565    -0.78300
O2913       O  0.96211265  0.68322063  0.66767104    -0.79000
C2914       C  0.54088165  0.56893717  0.65347924     0.96200
O2915       O  0.95941024  0.59780358  0.64389575    -0.77000
O2916       O  0.52862622  0.60343096  0.70114306    -0.82200
C2917       C  0.95516122  0.62689984  0.70436101     0.98900
C2918       C  0.54240089  0.62869754  0.70457527     1.04800
O2919       O  0.96874824  0.65210443  0.70031287    -0.77800
C2920       C  0.95291407  0.57364200  0.65249687     1.03100
Fe2921     Fe  0.75000992  0.63028886  0.39513073     1.65800
Fe2922     Fe  0.78953653  0.63009984  0.43274915     1.73200
Fe2923     Fe  0.71039880  0.62812374  0.43278239     1.54400
O2924       O  0.69305205  0.66619842  0.41982412    -0.81500
O2925       O  0.77425848  0.59960729  0.45165355    -0.79900
O2926       O  0.71152015  0.65909034  0.39350189    -0.84100
O2927       O  0.72261504  0.59129774  0.39385362    -0.78900
O2928       O  0.72571259  0.65805278  0.45180044    -0.80700
O2929       O  0.80634642  0.59248804  0.41936204    -0.83400
C2930       C  0.69808320  0.58403161  0.40198397     0.97300
C2931       C  0.69343054  0.67274044  0.40395348     1.04800
O2932       O  0.74997440  0.62956232  0.42024306    -1.12400
O2933       O  0.81065875  0.66064860  0.41565498    -0.74800
O2934       O  0.77755931  0.66929375  0.39417165    -0.78300
O2935       O  0.68952443  0.59807031  0.41550227    -0.79000
C2936       C  0.80263489  0.67501081  0.40209264     0.96200
O2937       O  0.78850455  0.60157415  0.39308349    -0.77000
O2938       O  0.77604691  0.66771481  0.44720293    -0.82200
C2939       C  0.74934688  0.58470616  0.45474758     0.98900
C2940       C  0.75050827  0.67316897  0.45481574     1.04800
O2941       O  0.72404556  0.58989703  0.44688772    -0.77800
C2942       C  0.80623886  0.58705502  0.40338749     1.03100
Fe2943     Fe  0.00059994  0.88143388  0.35848118     1.65800
Fe2944     Fe  0.99791501  0.84020491  0.32101103     1.73200
Fe2945     Fe  0.00003774  0.91996054  0.31992865     1.54400
O2946       O  0.96485300  0.93930690  0.33441502    -0.81500
O2947       O  0.53179491  0.85304179  0.30348061    -0.79900
O2948       O  0.96796879  0.91635309  0.36003243    -0.84100
O2949       O  0.53650141  0.91286134  0.35948459    -0.78900
O2950       O  0.96648068  0.90577801  0.30269485    -0.80700
O2951       O  0.53274773  0.82051235  0.33575449    -0.83400
C2952       C  0.54481343  0.93535680  0.35006020     0.97300
C2953       C  0.95594739  0.93593585  0.34982867     1.04800
O2954       O  0.99961958  0.88054374  0.33311529    -1.12400
O2955       O  0.96360438  0.82240006  0.33697337    -0.74800
O2956       O  0.96444904  0.85048546  0.36084702    -0.78300
O2957       O  0.53336867  0.94050637  0.33532607    -0.79000
C2958       C  0.95295184  0.82911152  0.35170663     0.96200
O2959       O  0.53342820  0.84662203  0.36034280    -0.77000
O2960       O  0.96299873  0.85433591  0.30453072    -0.82200
C2961       C  0.54339612  0.87843708  0.29817114     0.98900
C2962       C  0.95432189  0.88019395  0.29833437     1.04800
O2963       O  0.53505088  0.90484111  0.30377517    -0.77800
C2964       C  0.54356709  0.82531782  0.35064172     1.03100
Fe2965     Fe  0.99992510  0.62448539  0.10755712     1.65800
Fe2966     Fe  0.53897558  0.62514551  0.06947262     1.73200
Fe2967     Fe  0.95958445  0.62554557  0.06992922     1.54400
O2968       O  0.93841677  0.59417693  0.08648984    -0.81500
O2969       O  0.52616620  0.66327084  0.05501732    -0.79900
O2970       O  0.96984910  0.58752879  0.10885878    -0.84100
O2971       O  0.96379797  0.65590652  0.10977910    -0.78900
O2972       O  0.97198585  0.58856327  0.05468728    -0.80700
O2973       O  0.56083956  0.65533454  0.08626834    -0.83400
C2974       C  0.94549044  0.66984800  0.09957872     0.97300
C2975       C  0.94591770  0.58029343  0.10027747     1.04800
O2976       O  0.99948481  0.62506471  0.08231221    -1.12400
O2977       O  0.55568475  0.58697189  0.08269689    -0.74800
O2978       O  0.53603279  0.59305077  0.10894035    -0.78300
O2979       O  0.94305076  0.66265769  0.08386746    -0.79000
C2980       C  0.55423165  0.57972078  0.09847322     0.96200
O2981       O  0.53030544  0.66121976  0.10898726    -0.77000
O2982       O  0.52285389  0.59522755  0.05065716    -0.82200
C2983       C  0.00059452  0.67025418  0.04784176     1.03700
C2984       C  0.99714977  0.58234059  0.04691367     1.04800
O2985       O  0.97510146  0.65684723  0.05152178    -0.77800
C2986       C  0.55435509  0.66838359  0.10040154     1.03100
Fe2987     Fe  0.74775673  0.87556876  0.14412158     1.65800
Fe2988     Fe  0.74890428  0.91538539  0.18185814     1.73200
Fe2989     Fe  0.75045549  0.83591981  0.18212412     1.54400
O2990       O  0.71649891  0.81562193  0.16698715    -0.81500
O2991       O  0.78726004  0.90325115  0.19636059    -0.79900
O2992       O  0.71131151  0.84471441  0.14347760    -0.84100
O2993       O  0.77940559  0.84024212  0.14160766    -0.78900
O2994       O  0.71539292  0.84866730  0.19888836    -0.80700
O2995       O  0.77866723  0.93710991  0.16474056    -0.83400
C2996       C  0.79290042  0.82085368  0.15125685     0.97300
C2997       C  0.70297005  0.82220223  0.15293909     1.04800
O2998       O  0.74909115  0.87556713  0.16940264    -1.12400
O2999       O  0.71033649  0.93133671  0.16875093    -0.74800
O3000       O  0.71561131  0.91095366  0.14280568    -0.78300
O3001       O  0.78579640  0.81789701  0.16699765    -0.79000
C3002       C  0.70212477  0.92916020  0.15318706     0.96200
O3003       O  0.78435755  0.90618198  0.14208481    -0.77000
O3004       O  0.71920702  0.89995446  0.20086924    -0.82200
C3005       C  0.79655950  0.87763042  0.20264269     0.98900
C3006       C  0.70771391  0.87428614  0.20567917     1.04800
O3007       O  0.78423539  0.85166719  0.19892722    -0.77800
C3008       C  0.79156223  0.93006336  0.15064261     1.03100
C3009       C  0.63250164  0.79104736  0.12893795    -0.22300
C3010       C  0.63566203  0.75914301  0.13198898     0.09600
C3011       C  0.65916059  0.74838862  0.14315165     0.10000
C3012       C  0.67996805  0.76974226  0.15034725    -0.17300
C3013       C  0.67756333  0.80170742  0.14688919    -0.27700
C3014       C  0.65246429  0.81260053  0.13667921     0.18400
C3015       C  0.61416813  0.73731648  0.12337175     0.12300
C3016       C  0.66225622  0.71441013  0.14751591    -0.12000
H3017       H  0.69880585  0.76125548  0.15832269     0.12600
C3018       C  0.64503953  0.84656430  0.13417967    -0.22900
H3019       H  0.61396943  0.79923580  0.12064493     0.08300
C3020       C  0.58283459  0.73440726  0.12844490     0.04600
C3021       C  0.56395478  0.71223009  0.12044888    -0.20100
C3022       C  0.57549653  0.69273572  0.10741769    -0.12400
C3023       C  0.60701811  0.69627028  0.10215106     0.13300
C3024       C  0.62574373  0.71863125  0.11016765    -0.22800
C3025       C  0.56947535  0.75412999  0.14259084    -0.05900
H3026       H  0.54002106  0.70996568  0.12460978     0.14800
C3027       C  0.62174782  0.67616697  0.08858192    -0.16100
H3028       H  0.64986057  0.72128048  0.10632727     0.09200
H3029       H  0.62020644  0.85073856  0.13741577     0.07000
H3030       H  0.64896763  0.85320639  0.12057977     0.08200
H3031       H  0.65868889  0.86206327  0.14259208     0.07300
H3032       H  0.66749338  0.70086132  0.13578742     0.02100
H3033       H  0.64019859  0.70587506  0.15326961     0.02600
H3034       H  0.68128904  0.71015634  0.15686005     0.06100
H3035       H  0.54479816  0.74818826  0.14530223     0.05100
H3036       H  0.57037626  0.77899630  0.13887988    -0.00700
H3037       H  0.58304528  0.75057649  0.15454630     0.00800
H3038       H  0.64678197  0.68166154  0.08671625     0.04500
H3039       H  0.60998554  0.67990073  0.07608109     0.06400
H3040       H  0.62016734  0.65141779  0.09244154     0.07300
C3041       C  0.91357382  0.73661260  0.12623662    -0.22300
C3042       C  0.88225828  0.73608370  0.12136514     0.09600
C3043       C  0.87220585  0.71520293  0.10865053     0.10000
C3044       C  0.89370818  0.69459167  0.10136999    -0.17300
C3045       C  0.92505067  0.69446165  0.10648838    -0.27700
C3046       C  0.93528542  0.71641175  0.11878698     0.18400
C3047       C  0.86041919  0.75804033  0.12952835     0.12300
C3048       C  0.83870695  0.71439051  0.10298921    -0.12000
H3049       H  0.88580041  0.67788886  0.09196639     0.12600
C3050       C  0.96888259  0.72018282  0.12393206    -0.22900
H3051       H  0.92119141  0.75323397  0.13576661     0.08300
C3052       C  0.84517682  0.75074162  0.14501481     0.04600
C3053       C  0.82383073  0.77194154  0.15195279    -0.20100
C3054       C  0.81718021  0.80029046  0.14369003    -0.12400
C3055       C  0.83323399  0.80770189  0.12820939     0.13300
C3056       C  0.85468161  0.78644194  0.12143598    -0.22800
C3057       C  0.85123313  0.72040202  0.15407402    -0.05900
H3058       H  0.81178493  0.76594573  0.16372276     0.14800
C3059       C  0.82844949  0.83787731  0.11868383    -0.16100
H3060       H  0.86681749  0.79175023  0.10958106     0.09200
H3061       H  0.97177179  0.71367639  0.13762771     0.07000
H3062       H  0.97591491  0.74481275  0.12224264     0.08200
H3063       H  0.98504792  0.70626177  0.11604316     0.07300
H3064       H  0.83201542  0.73727925  0.09754264     0.02100
H3065       H  0.82346811  0.70903568  0.11411786     0.02600
H3066       H  0.83470669  0.69646091  0.09302833     0.06100
H3067       H  0.83727231  0.71821221  0.16601297     0.05100
H3068       H  0.87622505  0.71873040  0.15755262    -0.00700
H3069       H  0.84511375  0.70076895  0.14553106     0.00800
H3070       H  0.84483081  0.84040503  0.10773496     0.04500
H3071       H  0.83237888  0.85771155  0.12743653     0.06400
H3072       H  0.80454844  0.83892609  0.11334655     0.07300
C3073       C  0.88647095  0.51493997  0.10431599    -0.22300
C3074       C  0.88191574  0.51444117  0.12209511     0.09600
C3075       C  0.89980161  0.53391132  0.13268113     0.10000
C3076       C  0.92103902  0.55453553  0.12514305    -0.17300
C3077       C  0.92519380  0.55581607  0.10725019    -0.27700
C3078       C  0.90844466  0.53481947  0.09674182     0.18400
C3079       C  0.85866525  0.99297044  0.12952968     0.12300
C3080       C  0.89625377  0.53305705  0.15190582    -0.12000
H3081       H  0.93398502  0.57025518  0.13328415     0.12600
C3082       C  0.91394443  0.53148843  0.07772616    -0.22900
H3083       H  0.87319471  0.99923927  0.09643936     0.08300
C3084       C  0.82741506  0.00216791  0.13171865     0.04600
C3085       C  0.80610967  0.98114745  0.13888262    -0.20100
C3086       C  0.81537480  0.95113162  0.14370187    -0.12400
C3087       C  0.84679467  0.94204319  0.14164931     0.13300
C3088       C  0.86805387  0.96313438  0.13451047    -0.22800
C3089       C  0.81643744  0.53405114  0.12628897    -0.05900
H3090       H  0.78199734  0.98798633  0.14052530     0.14800
C3091       C  0.85892395  0.91080732  0.14728738    -0.16100
H3092       H  0.89220414  0.95637269  0.13294009     0.09200
H3093       H  0.89293051  0.53913664  0.07059906     0.07000
H3094       H  0.91853388  0.50672266  0.07469823     0.08200
H3095       H  0.93437507  0.54460563  0.07302788     0.07300
H3096       H  0.90187907  0.50945669  0.15676200     0.02100
H3097       H  0.87196592  0.53894663  0.15550864     0.02600
H3098       H  0.91203374  0.54983036  0.15829264     0.06100
H3099       H  0.79122982  0.53740618  0.12886335     0.05100
H3100       H  0.82047942  0.53743030  0.11234189    -0.00700
H3101       H  0.82949663  0.55199082  0.13349446     0.00800
H3102       H  0.86899265  0.89849646  0.13609249     0.04500
H3103       H  0.84077352  0.89583752  0.15310335     0.06400
H3104       H  0.87749196  0.91410920  0.15700221     0.07300
C3105       C  0.64414564  0.99527028  0.14590057    -0.22300
C3106       C  0.63094298  0.98620999  0.13030562     0.09600
C3107       C  0.63947329  0.95774664  0.12287233     0.10000
C3108       C  0.66164788  0.93909337  0.13110214    -0.17300
C3109       C  0.67611252  0.94852334  0.14645292    -0.27700
C3110       C  0.66676236  0.97695740  0.15408227     0.18400
C3111       C  0.61052523  0.50842870  0.12124104     0.12300
C3112       C  0.62582694  0.94752218  0.10601913    -0.12000
H3113       H  0.66828213  0.91732168  0.12520487     0.12600
C3114       C  0.68125157  0.98910383  0.17033415    -0.22900
H3115       H  0.63741144  0.01738581  0.15137963     0.08300
C3116       C  0.57816758  0.50918324  0.12405837     0.04600
C3117       C  0.56032629  0.53223438  0.11596928    -0.20100
C3118       C  0.57420096  0.55465435  0.10526204    -0.12400
C3119       C  0.60680869  0.55376494  0.10250407     0.13300
C3120       C  0.62440221  0.53034596  0.11037941    -0.22800
C3121       C  0.56269519  0.98633658  0.13605193    -0.05900
H3122       H  0.53542571  0.53306173  0.11820387     0.14800
C3123       C  0.62437322  0.57786540  0.09229679    -0.16100
H3124       H  0.64941828  0.52978398  0.10850586     0.09200
H3125       H  0.67177256  0.01219153  0.17391641     0.07000
H3126       H  0.70676650  0.99171900  0.16857575     0.08200
H3127       H  0.67634697  0.97299248  0.18113938     0.07300
H3128       H  0.63179461  0.46509415  0.09578941     0.02100
H3129       H  0.60016776  0.94551240  0.10717294     0.02600
H3130       H  0.63512863  0.92463216  0.10194974     0.06100
H3131       H  0.53721264  0.99038335  0.13694535     0.05100
H3132       H  0.57268935  0.98839402  0.14912115    -0.00700
H3133       H  0.56648877  0.96237967  0.13129449     0.00800
H3134       H  0.64232005  0.58872027  0.10057669     0.04500
H3135       H  0.60959431  0.59681669  0.08732201     0.06400
H3136       H  0.63613232  0.56657998  0.08126654     0.07300
C3137       C  0.58685814  0.89085481  0.25623013    -0.22300
C3138       C  0.61400404  0.87365388  0.25917937     0.09600
C3139       C  0.61778122  0.85771487  0.27487804     0.10000
C3140       C  0.59429481  0.85958200  0.28739581    -0.17300
C3141       C  0.56724315  0.87714837  0.28454932    -0.27700
C3142       C  0.56319955  0.89249980  0.26860467     0.18400
C3143       C  0.63821053  0.87288952  0.24562607     0.12300
C3144       C  0.64649444  0.83864818  0.27832873    -0.12000
H3145       H  0.59714645  0.84751487  0.29951666     0.12600
C3146       C  0.53384079  0.90971471  0.26384922    -0.22900
H3147       H  0.58392706  0.90273449  0.24405309     0.08300
C3148       C  0.63617405  0.85245625  0.23157848     0.04600
C3149       C  0.65933787  0.85318201  0.21885111    -0.20100
C3150       C  0.68425449  0.87426000  0.21969812    -0.12400
C3151       C  0.68636394  0.89452354  0.23397908     0.13300
C3152       C  0.66328307  0.89349799  0.24673868    -0.22800
C3153       C  0.60953911  0.82993247  0.23005104    -0.05900
H3154       H  0.65767614  0.83756747  0.20801756     0.14800
C3155       C  0.71324252  0.91665183  0.23620781    -0.16100
H3156       H  0.66465403  0.90897986  0.25764599     0.09200
H3157       H  0.52401296  0.89962005  0.25193988     0.07000
H3158       H  0.53935089  0.93453897  0.26148154     0.08200
H3159       H  0.51545171  0.90837368  0.27377751     0.07300
H3160       H  0.66742699  0.85371071  0.27779760     0.02100
H3161       H  0.64865871  0.82013108  0.26852639     0.02600
H3162       H  0.64565284  0.82744634  0.29117119     0.06100
H3163       H  0.61160071  0.81538262  0.21836994     0.05100
H3164       H  0.58720276  0.84283258  0.22934107    -0.00700
H3165       H  0.60913194  0.81430236  0.24139847     0.00800
H3166       H  0.71288268  0.93458544  0.22596833     0.04500
H3167       H  0.73557625  0.90367872  0.23577320     0.06400
H3168       H  0.71208146  0.92896145  0.24868907     0.07300
C3169       C  0.88478609  0.90171931  0.27024332    -0.22300
C3170       C  0.88813230  0.88020566  0.25692162     0.09600
C3171       C  0.91261067  0.85843313  0.25748631     0.10000
C3172       C  0.93329380  0.85865894  0.27139660    -0.17300
C3173       C  0.93019097  0.88023995  0.28477169    -0.27700
C3174       C  0.90527162  0.90186164  0.28428455     0.18400
C3175       C  0.86473108  0.87963361  0.24296712     0.12300
C3176       C  0.91687018  0.83499161  0.24337994    -0.12000
H3177       H  0.95240079  0.84221443  0.27167296     0.12600
C3178       C  0.89858887  0.92445901  0.29856335    -0.22900
H3179       H  0.86556859  0.91803968  0.26987575     0.08300
C3180       C  0.83722771  0.86206021  0.24461346     0.04600
C3181       C  0.81600206  0.86133524  0.23098741    -0.20100
C3182       C  0.82142030  0.87798950  0.21575730    -0.12400
C3183       C  0.84930558  0.89531581  0.21400629     0.13300
C3184       C  0.87049924  0.89606370  0.22773330    -0.22800
C3185       C  0.83022008  0.84420326  0.26080972    -0.05900
H3186       H  0.79462000  0.84820833  0.23238974     0.14800
C3187       C  0.85813372  0.91224134  0.19775232    -0.16100
H3188       H  0.89191950  0.90916799  0.22645639     0.09200
H3189       H  0.87426542  0.92125816  0.30306629     0.07000
H3190       H  0.90129865  0.94857936  0.29372806     0.08200
H3191       H  0.91375669  0.92127580  0.30988876     0.07300
H3192       H  0.92069087  0.84717067  0.23098604     0.02100
H3193       H  0.89581345  0.82019781  0.24237488     0.02600
H3194       H  0.93718019  0.81963247  0.24579290     0.06100
H3195       H  0.80770827  0.83164554  0.25996705     0.05100
H3196       H  0.82891175  0.86041476  0.27182616    -0.00700
H3197       H  0.84884474  0.82687089  0.26322477     0.00800
H3198       H  0.85978053  0.93751754  0.20033498     0.04500
H3199       H  0.84148394  0.90858288  0.18713540     0.06400
H3200       H  0.88115323  0.90381541  0.19323805     0.07300
C3201       C  0.61473333  0.79424992  0.37417315    -0.22300
C3202       C  0.61015161  0.76219769  0.37258287     0.09600
C3203       C  0.58490459  0.75103737  0.36283758     0.10000
C3204       C  0.56419664  0.77228202  0.35530479    -0.17300
C3205       C  0.56818643  0.80444492  0.35727091    -0.27700
C3206       C  0.59442315  0.81557004  0.36639113     0.18400
C3207       C  0.63228613  0.74065177  0.38103920     0.12300
C3208       C  0.57986402  0.71672385  0.36039549    -0.12000
H3209       H  0.54428648  0.76371152  0.34823134     0.12600
C3210       C  0.60249415  0.84955277  0.36766164    -0.22900
H3211       H  0.63456517  0.80268509  0.38137071     0.08300
C3212       C  0.66167589  0.73426351  0.37384633     0.04600
C3213       C  0.68126162  0.71264433  0.38189381    -0.20100
C3214       C  0.67224685  0.69709623  0.39701629    -0.12400
C3215       C  0.64281124  0.70404920  0.40437776     0.13300
C3216       C  0.62330675  0.72580471  0.39627006    -0.22800
C3217       C  0.67208378  0.74974486  0.35746334    -0.05900
H3218       H  0.70374727  0.70768888  0.37620922     0.14800
C3219       C  0.63111075  0.68800387  0.42034242    -0.16100
H3220       H  0.60063639  0.73097419  0.40167544     0.09200
H3221       H  0.62663913  0.85324775  0.36298192     0.07000
H3222       H  0.60105793  0.85708546  0.38124181     0.08200
H3223       H  0.58726527  0.86461813  0.35978732     0.07300
H3224       H  0.57595657  0.70533146  0.37300069     0.02100
H3225       H  0.60064116  0.70631094  0.35417816     0.02600
H3226       H  0.55932643  0.71196652  0.35218054     0.06100
H3227       H  0.69550862  0.74166817  0.35340480     0.05100
H3228       H  0.67318504  0.77525914  0.35929146    -0.00700
H3229       H  0.65539074  0.74440077  0.34702510     0.00800
H3230       H  0.60706045  0.69532636  0.42366577     0.04500
H3231       H  0.64622071  0.69385111  0.43140034     0.06400
H3232       H  0.63085491  0.66248651  0.41836713     0.07300
C3233       C  0.88227420  0.77611965  0.35677790    -0.22300
C3234       C  0.88347832  0.76982288  0.37440275     0.09600
C3235       C  0.90565193  0.78502738  0.38466719     0.10000
C3236       C  0.92726386  0.80501355  0.37690534    -0.17300
C3237       C  0.92708681  0.81047416  0.35909095    -0.27700
C3238       C  0.90320147  0.79692190  0.34902786     0.18400
C3239       C  0.86230775  0.74608847  0.38170885     0.12300
C3240       C  0.90659714  0.77998405  0.40379097    -0.12000
H3241       H  0.94501061  0.81571677  0.38478230     0.12600
C3242       C  0.89806245  0.80456385  0.33035209    -0.22900
H3243       H  0.86467706  0.76485523  0.34902539     0.08300
C3244       C  0.83076231  0.75249686  0.38527414     0.04600
C3245       C  0.81170904  0.72878297  0.39187333    -0.20100
C3246       C  0.82363995  0.69895430  0.39506515    -0.12400
C3247       C  0.85523541  0.69251605  0.39124672     0.13300
C3248       C  0.87418126  0.71631186  0.38479431    -0.22800
C3249       C  0.81742967  0.78440713  0.38234440    -0.05900
H3250       H  0.78748531  0.73359823  0.39473296     0.14800
C3251       C  0.86955375  0.66065895  0.39303533    -0.16100
H3252       H  0.89836271  0.71145456  0.38181904     0.09200
H3253       H  0.87338931  0.81140844  0.32839271     0.07000
H3254       H  0.90306749  0.78380929  0.32240618     0.08200
H3255       H  0.91224023  0.82431069  0.32572166     0.07300
H3256       H  0.91131885  0.75518562  0.40668688     0.02100
H3257       H  0.88388573  0.78666672  0.40950520     0.02600
H3258       H  0.92505022  0.79411074  0.40995723     0.06100
H3259       H  0.79248780  0.78559496  0.38604603     0.05100
H3260       H  0.81935085  0.79073572  0.36857504    -0.00700
H3261       H  0.83041598  0.80161806  0.39012047     0.00800
H3262       H  0.87961572  0.65349682  0.38053062     0.04500
H3263       H  0.85271151  0.64246540  0.39682466     0.06400
H3264       H  0.88845079  0.66135260  0.40272306     0.07300
C3265       C  0.87597855  0.53384930  0.39546030    -0.22300
C3266       C  0.86725755  0.51997660  0.37999682     0.09600
C3267       C  0.83826540  0.52713921  0.37259382     0.10000
C3268       C  0.81868848  0.54856089  0.38074439    -0.17300
C3269       C  0.82738683  0.56304987  0.39618054    -0.27700
C3270       C  0.85650193  0.55535503  0.40368734     0.18400
C3271       C  0.88926044  0.49849075  0.37158051     0.12300
C3272       C  0.82825222  0.51250000  0.35596856    -0.12000
H3273       H  0.79646263  0.55412405  0.37493541     0.12600
C3274       C  0.86791017  0.57030724  0.41996474    -0.22900
H3275       H  0.89840966  0.52807481  0.40097164     0.08300
C3276       C  0.91349878  0.50963826  0.36103412     0.04600
C3277       C  0.93436400  0.98856685  0.35359246    -0.20100
C3278       C  0.93133134  0.95651758  0.35646274    -0.12400
C3279       C  0.90623767  0.94531815  0.36654413     0.13300
C3280       C  0.88576349  0.96661684  0.37411352    -0.22800
C3281       C  0.91767268  0.54389854  0.35784821    -0.05900
H3282       H  0.95354111  0.99711706  0.34586733     0.14800
C3283       C  0.89966731  0.91123116  0.36919231    -0.16100
H3284       H  0.86667664  0.95822996  0.38197151     0.09200
H3285       H  0.86847578  0.59592690  0.41837872     0.07000
H3286       H  0.89179503  0.56255271  0.42334310     0.08200
H3287       H  0.85245809  0.56392205  0.43082893     0.07300
H3288       H  0.82727471  0.98723996  0.35733147     0.02100
H3289       H  0.84524070  0.51827399  0.34570437     0.02600
H3290       H  0.80496610  0.52085713  0.35184644     0.06100
H3291       H  0.93773964  0.54864920  0.34923982     0.05100
H3292       H  0.92187522  0.55599216  0.37017931    -0.00700
H3293       H  0.89640983  0.55356559  0.35176425     0.00800
H3294       H  0.90237771  0.90523968  0.38296966     0.04500
H3295       H  0.91492203  0.89589628  0.36152068     0.06400
H3296       H  0.87537985  0.90613308  0.36525034     0.07300
C3297       C  0.63855403  0.51902240  0.39706240    -0.22300
C3298       C  0.63557660  0.51819677  0.37919015     0.09600
C3299       C  0.65421158  0.53765929  0.36890669     0.10000
C3300       C  0.67510129  0.55808819  0.37678250    -0.17300
C3301       C  0.67784969  0.55952587  0.39474090    -0.27700
C3302       C  0.65991569  0.53894696  0.40501289     0.18400
C3303       C  0.61276482  0.49670925  0.37148674     0.12300
C3304       C  0.65184705  0.53699397  0.34963627    -0.12000
H3305       H  0.68877100  0.57365363  0.36883909     0.12600
C3306       C  0.66334684  0.53620877  0.42421239    -0.22900
H3307       H  0.62452057  0.00353615  0.40488275     0.08300
C3308       C  0.61994932  0.96509935  0.36881923     0.04600
C3309       C  0.59742338  0.94563223  0.36152237    -0.20100
C3310       C  0.56802425  0.95711524  0.35692934    -0.12400
C3311       C  0.56072496  0.98869947  0.35999485     0.13300
C3312       C  0.58344829  0.00815373  0.36705408    -0.22800
C3313       C  0.65128113  0.95205896  0.37363096    -0.05900
H3314       H  0.60274064  0.92135645  0.35939568     0.14800
C3315       C  0.52892226  0.00240885  0.35677809    -0.16100
H3316       H  0.57802132  0.03236198  0.36941035     0.09200
H3317       H  0.66717175  0.51149338  0.42773483     0.07000
H3318       H  0.64174427  0.54445536  0.43056432     0.08200
H3319       H  0.68347819  0.54913343  0.42935421     0.07300
H3320       H  0.62789494  0.54337097  0.34562955     0.02100
H3321       H  0.65733457  0.51333117  0.34490304     0.02600
H3322       H  0.66828850  0.55354868  0.34350585     0.06100
H3323       H  0.65308664  0.92696300  0.37054950     0.05100
H3324       H  0.65515455  0.95484830  0.38761402    -0.00700
H3325       H  0.66981003  0.46466718  0.36644418     0.00800
H3326       H  0.51957954  0.01209602  0.36892460     0.04500
H3327       H  0.51177644  0.98530049  0.35206252     0.06400
H3328       H  0.53076856  0.02142205  0.34718596     0.07300
C3329       C  0.72202171  0.98013415  0.51405638    -0.22300
C3330       C  0.75056634  0.98939645  0.50711831     0.09600
C3331       C  0.77834448  0.97674249  0.51369765     0.10000
C3332       C  0.77693072  0.95503435  0.52715812    -0.17300
C3333       C  0.74830236  0.94530416  0.53422223    -0.27700
C3334       C  0.72032936  0.95816995  0.52738583     0.18400
C3335       C  0.75073206  0.51339726  0.49340804     0.12300
C3336       C  0.80946818  0.98583587  0.50632738    -0.12000
H3337       H  0.79847836  0.94538183  0.53202743     0.12600
C3338       C  0.68843874  0.94939615  0.53389080    -0.22900
H3339       H  0.70085620  0.99025821  0.50893909     0.08300
C3340       C  0.74240371  0.50628673  0.47635168     0.04600
C3341       C  0.74191826  0.53008917  0.46397501    -0.20100
C3342       C  0.74977524  0.56071243  0.46828902    -0.12400
C3343       C  0.75772346  0.56782858  0.48545570     0.13300
C3344       C  0.75825240  0.54400671  0.49774505    -0.22800
C3345       C  0.73428475  0.97353722  0.47115013    -0.05900
H3346       H  0.73570333  0.52475495  0.45083896     0.14800
C3347       C  0.76457356  0.60035883  0.49148692    -0.16100
H3348       H  0.76409035  0.54944014  0.51092528     0.09200
H3349       H  0.68389556  0.92445819  0.53138990     0.07000
H3350       H  0.66971918  0.96281556  0.52742221     0.08200
H3351       H  0.68672448  0.95422730  0.54780309     0.07300
H3352       H  0.81334535  0.51118520  0.50808763     0.02100
H3353       H  0.81011524  0.98026507  0.49243667     0.02600
H3354       H  0.82889745  0.97330026  0.51269187     0.06100
H3355       H  0.72889214  0.97194177  0.45725253     0.05100
H3356       H  0.71358473  0.96542549  0.47840922    -0.00700
H3357       H  0.75423426  0.95791669  0.47392128     0.00800
H3358       H  0.74807598  0.60666543  0.50188654     0.04500
H3359       H  0.76221453  0.61812153  0.48128812     0.06400
H3360       H  0.78865794  0.60142697  0.49658725     0.07300
C3361       C  0.76173911  0.74810859  0.47986909    -0.22300
C3362       C  0.74851223  0.73981239  0.49566784     0.09600
C3363       C  0.73551166  0.71003791  0.49785039     0.10000
C3364       C  0.73614961  0.68906515  0.48414237    -0.17300
C3365       C  0.74965353  0.69711451  0.46832311    -0.27700
C3366       C  0.76227091  0.72725410  0.46607011     0.18400
C3367       C  0.74786578  0.76295300  0.50965264     0.12300
C3368       C  0.72130037  0.70033656  0.51470287    -0.12000
H3369       H  0.72645522  0.66603395  0.48586813     0.12600
C3370       C  0.77524437  0.73880564  0.44923272    -0.22900
H3371       H  0.77129216  0.77122755  0.47822540     0.08300
C3372       C  0.77361754  0.76737440  0.52052974     0.04600
C3373       C  0.77197949  0.78986350  0.53348378    -0.20100
C3374       C  0.74512893  0.80810809  0.53583531    -0.12400
C3375       C  0.71921887  0.80344047  0.52484218     0.13300
C3376       C  0.72100481  0.78086254  0.51192538    -0.22800
C3377       C  0.80278539  0.74834376  0.51842463    -0.05900
H3378       H  0.79185980  0.79323775  0.54181384     0.14800
C3379       C  0.69004176  0.82279317  0.52609565    -0.16100
H3380       H  0.70141758  0.77726092  0.50340984     0.09200
H3381       H  0.80033440  0.74427704  0.45075265     0.07000
H3382       H  0.76275684  0.76028495  0.44535139     0.08200
H3383       H  0.77261412  0.72206465  0.43859959     0.07300
H3384       H  0.70146293  0.71582056  0.51786741     0.02100
H3385       H  0.73901388  0.70185042  0.52501922     0.02600
H3386       H  0.71253192  0.67609767  0.51429821     0.06100
H3387       H  0.82070049  0.75455502  0.52807635     0.05100
H3388       H  0.81280633  0.75232372  0.50547407    -0.00700
H3389       H  0.79724110  0.72331809  0.51996273     0.00800
H3390       H  0.67317543  0.81708196  0.51579449     0.04500
H3391       H  0.69594242  0.84780152  0.52486780     0.06400
H3392       H  0.67824966  0.81842371  0.53853820     0.07300
C3393       C  0.62428407  0.79274002  0.62024744    -0.22300
C3394       C  0.63569616  0.76260916  0.62270239     0.09600
C3395       C  0.66669006  0.75552750  0.61822900     0.10000
C3396       C  0.68587331  0.77909567  0.61162890    -0.17300
C3397       C  0.67446546  0.80932540  0.60913751    -0.27700
C3398       C  0.64328491  0.81632290  0.61362471     0.18400
C3399       C  0.61445209  0.73900114  0.62997049     0.12300
C3400       C  0.67933900  0.72313463  0.62032640    -0.12000
H3401       H  0.70975834  0.77385342  0.60818945     0.12600
C3402       C  0.62947709  0.84846464  0.61227484    -0.22900
H3403       H  0.60042679  0.79798363  0.62376947     0.08300
C3404       C  0.61074505  0.73537815  0.64782642     0.04600
C3405       C  0.58822337  0.71465097  0.65410849    -0.20100
C3406       C  0.56942205  0.69732469  0.64291966    -0.12400
C3407       C  0.57372837  0.70068169  0.62493244     0.13300
C3408       C  0.59619362  0.72154244  0.61874682    -0.22800
C3409       C  0.63032501  0.75369011  0.66020347    -0.05900
H3410       H  0.58516271  0.71210006  0.66784109     0.14800
C3411       C  0.55395563  0.68356953  0.61208753    -0.16100
H3412       H  0.59917401  0.72477767  0.60504802     0.09200
H3413       H  0.62084484  0.85582637  0.62506455     0.07000
H3414       H  0.60962073  0.84816108  0.60317987     0.08200
H3415       H  0.64625847  0.86627477  0.60790345     0.07300
H3416       H  0.66551093  0.70676392  0.61244102     0.02100
H3417       H  0.67794884  0.71595852  0.63398770     0.02600
H3418       H  0.70403275  0.72156453  0.61618710     0.06100
H3419       H  0.62453677  0.74803826  0.67374389     0.05100
H3420       H  0.62640611  0.77891669  0.65819497    -0.00700
H3421       H  0.65531926  0.74837860  0.65810804     0.00800
H3422       H  0.55939252  0.69063655  0.59870225     0.04500
H3423       H  0.52895448  0.68857730  0.61443452     0.06400
H3424       H  0.55828129  0.65822834  0.61306476     0.07300
C3425       C  0.88094158  0.72471484  0.64191422    -0.22300
C3426       C  0.89087831  0.74406482  0.62849194     0.09600
C3427       C  0.92212407  0.74311756  0.62300569     0.10000
C3428       C  0.94267113  0.72219262  0.63082593    -0.17300
C3429       C  0.93288587  0.70284847  0.64430546    -0.27700
C3430       C  0.90157281  0.70396212  0.64991269     0.18400
C3431       C  0.86866828  0.76643470  0.62096425     0.12300
C3432       C  0.93392500  0.76468375  0.60919755    -0.12000
H3433       H  0.96672630  0.72130320  0.62662030     0.12600
C3434       C  0.88887506  0.68311712  0.66382977    -0.22900
H3435       H  0.85690921  0.72578163  0.64613661     0.08300
C3436       C  0.85179643  0.75977013  0.60590471     0.04600
C3437       C  0.83185964  0.78246318  0.59901851    -0.20100
C3438       C  0.82796394  0.81122831  0.60715863    -0.12400
C3439       C  0.84494467  0.81773812  0.62230524     0.13300
C3440       C  0.86515074  0.79522073  0.62896169    -0.22800
C3441       C  0.85448496  0.72860454  0.59732221    -0.05900
H3442       H  0.81873982  0.77750480  0.58748227     0.14800
C3443       C  0.84271376  0.84870592  0.63123819    -0.16100
H3444       H  0.87844424  0.80007783  0.64045534     0.09200
H3445       H  0.86919483  0.66932764  0.65866306     0.07000
H3446       H  0.88026673  0.69749356  0.67463766     0.08200
H3447       H  0.90625946  0.66649141  0.66890880     0.07300
H3448       H  0.93063111  0.78914472  0.61326478     0.02100
H3449       H  0.92101467  0.76077098  0.59709042     0.02600
H3450       H  0.95907786  0.76103884  0.60658313     0.06100
H3451       H  0.83949422  0.72714339  0.58575919     0.05100
H3452       H  0.84722899  0.71006556  0.60640638    -0.00700
H3453       H  0.87888841  0.72435494  0.59331203     0.00800
H3454       H  0.81899149  0.85208801  0.63653769     0.04500
H3455       H  0.84818615  0.86771950  0.62206628     0.06400
H3456       H  0.85929461  0.85036336  0.64211413     0.07300
C3457       C  0.86169007  0.98722862  0.60573218    -0.22300
C3458       C  0.86320426  0.98946855  0.62362205     0.09600
C3459       C  0.84395345  0.97064310  0.63391364     0.10000
C3460       C  0.82423311  0.94911296  0.62605112    -0.17300
C3461       C  0.82304917  0.94605229  0.60808685    -0.27700
C3462       C  0.84182119  0.96577378  0.59776778     0.18400
C3463       C  0.88590354  0.51095887  0.63140781     0.12300
C3464       C  0.84417089  0.97334802  0.65318658    -0.12000
H3465       H  0.80998771  0.93420330  0.63406727     0.12600
C3466       C  0.84072770  0.96497116  0.57844764    -0.22900
H3467       H  0.87647669  0.00210647  0.59799494     0.08300
C3468       C  0.91575406  0.00043705  0.63627367     0.04600
C3469       C  0.93640701  0.52132249  0.64394388    -0.20100
C3470       C  0.92855596  0.55270715  0.64604929    -0.12400
C3471       C  0.89865297  0.56325826  0.64108962     0.13300
C3472       C  0.87771297  0.54215160  0.63374614    -0.22800
C3473       C  0.92579938  0.96735812  0.63326686    -0.05900
H3474       H  0.95936882  0.51335105  0.64767486     0.14800
C3475       C  0.88766038  0.59615058  0.64380285    -0.16100
H3476       H  0.85475010  0.54999752  0.62992983     0.09200
H3477       H  0.84967708  0.94240982  0.57370700     0.07000
H3478       H  0.85534647  0.98349112  0.57263408     0.08200
H3479       H  0.81644642  0.96851867  0.57398459     0.07300
H3480       H  0.83687428  0.49804579  0.65677724     0.02100
H3481       H  0.86772130  0.96817495  0.65825644     0.02600
H3482       H  0.82752145  0.95696868  0.65929013     0.06100
H3483       H  0.95002033  0.96320507  0.63768046     0.05100
H3484       H  0.92470680  0.96207723  0.61935407    -0.00700
H3485       H  0.91029093  0.95114706  0.64030456     0.00800
H3486       H  0.88268089  0.60716139  0.63120717     0.04500
H3487       H  0.90468235  0.61073913  0.65073429     0.06400
H3488       H  0.86596446  0.59593893  0.65155741     0.07300
C3489       C  0.57923270  0.50757407  0.62588787    -0.22300
C3490       C  0.60922397  0.50704629  0.63281873     0.09600
C3491       C  0.61662592  0.52626308  0.64683822     0.10000
C3492       C  0.59355875  0.54572723  0.65368028    -0.17300
C3493       C  0.56353385  0.54655252  0.64661521    -0.27700
C3494       C  0.55610699  0.52680812  0.63270287     0.18400
C3495       C  0.63216731  0.98543003  0.62528515     0.12300
C3496       C  0.64892228  0.52658370  0.65432317    -0.12000
H3497       H  0.59915487  0.56089439  0.66430677     0.12600
C3498       C  0.52392451  0.52440076  0.62507277    -0.22900
H3499       H  0.57384699  0.99257898  0.61507833     0.08300
C3500       C  0.63551424  0.95501095  0.63172198     0.04600
C3501       C  0.65640483  0.93474142  0.62371667    -0.20100
C3502       C  0.67326788  0.94388080  0.60911470    -0.12400
C3503       C  0.66990847  0.97441375  0.60268044     0.13300
C3504       C  0.64936226  0.99491187  0.61091128    -0.22800
C3505       C  0.61650120  0.94372143  0.64675483    -0.05900
H3506       H  0.65907745  0.91133383  0.62865322     0.14800
C3507       C  0.68842352  0.98567557  0.58749005    -0.16100
H3508       H  0.64634599  0.51835834  0.60610085     0.09200
H3509       H  0.51619110  0.00006085  0.62524941     0.07000
H3510       H  0.52454126  0.53213423  0.61147999     0.08200
H3511       H  0.50618907  0.53820248  0.63196004     0.07300
H3512       H  0.66592423  0.53358863  0.64430207     0.02100
H3513       H  0.65513576  0.50314520  0.65915988     0.02600
H3514       H  0.65080500  0.54315628  0.66515507     0.06100
H3515       H  0.62186418  0.91917702  0.65002260     0.05100
H3516       H  0.59134687  0.94531152  0.64363617    -0.00700
H3517       H  0.62136239  0.95810093  0.65821399     0.00800
H3518       H  0.68196840  0.97218729  0.57597264     0.04500
H3519       H  0.71368575  0.98286202  0.59005065     0.06400
H3520       H  0.68384872  0.51063372  0.58475331     0.07300
C3521       C  0.66285880  0.61897885  0.75536702    -0.22300
C3522       C  0.63447820  0.63375609  0.75859373     0.09600
C3523       C  0.62951144  0.64864317  0.77444638     0.10000
C3524       C  0.65328647  0.64838685  0.78680212    -0.17300
C3525       C  0.68171695  0.63330329  0.78366268    -0.27700
C3526       C  0.68673514  0.61882563  0.76756511     0.18400
C3527       C  0.61049835  0.63337744  0.74500783     0.12300
C3528       C  0.59919192  0.66476941  0.77825879    -0.12000
H3529       H  0.64945501  0.65946361  0.79909007     0.12600
C3530       C  0.71711992  0.60391907  0.76239116    -0.22900
H3531       H  0.66655967  0.60782445  0.74307741     0.08300
C3532       C  0.61231808  0.65340143  0.73071707     0.04600
C3533       C  0.58991565  0.65116035  0.71772336    -0.20100
C3534       C  0.56574171  0.62921879  0.71861623    -0.12400
C3535       C  0.56377247  0.60940440  0.73320012     0.13300
C3536       C  0.58630564  0.61175835  0.74615061    -0.22800
C3537       C  0.63777800  0.67729711  0.72926838    -0.05900
H3538       H  0.59147086  0.66653018  0.70672231     0.14800
C3539       C  0.53773659  0.58628809  0.73557920    -0.16100
H3540       H  0.58520884  0.59653741  0.75723596     0.09200
H3541       H  0.72554482  0.61472006  0.75029661     0.07000
H3542       H  0.71342573  0.57875042  0.76015229     0.08200
H3543       H  0.73590264  0.60666311  0.77193319     0.07300
H3544       H  0.57978199  0.64780396  0.77776881     0.02100
H3545       H  0.59504736  0.68334382  0.76862165     0.02600
H3546       H  0.59924611  0.67552259  0.79118602     0.06100
H3547       H  0.63546602  0.69149693  0.71742193     0.05100
H3548       H  0.66081863  0.66565589  0.72894425    -0.00700
H3549       H  0.63679927  0.69314938  0.74045703     0.00800
H3550       H  0.53911643  0.56804273  0.72559694     0.04500
H3551       H  0.51490486  0.59828590  0.73485317     0.06400
H3552       H  0.53903329  0.57444735  0.74823563     0.07300
C3553       C  0.83576997  0.64299770  0.75597881    -0.22300
C3554       C  0.86269398  0.62515614  0.75819089     0.09600
C3555       C  0.86641475  0.60731646  0.77328507     0.10000
C3556       C  0.84289924  0.60773571  0.78580379    -0.17300
C3557       C  0.81576619  0.62547757  0.78355262    -0.27700
C3558       C  0.81186591  0.64282140  0.76819099     0.18400
C3559       C  0.88627953  0.62523460  0.74431089     0.12300
C3560       C  0.89488538  0.58751431  0.77610511    -0.12000
H3561       H  0.84584066  0.59437850  0.79750142     0.12600
C3562       C  0.78250685  0.66025992  0.76364093    -0.22900
H3563       H  0.83302884  0.65661491  0.74435049     0.08300
C3564       C  0.88036247  0.61128760  0.72826677     0.04600
C3565       C  0.90324558  0.61250073  0.71543837    -0.20100
C3566       C  0.93193092  0.62713813  0.71829720    -0.12400
C3567       C  0.93814330  0.64035863  0.73456646     0.13300
C3568       C  0.91490072  0.63984381  0.74719412    -0.22800
C3569       C  0.85022027  0.59459322  0.72475657    -0.05900
H3570       H  0.89872470  0.60199838  0.70307003     0.14800
C3571       C  0.96929961  0.65377831  0.73950242    -0.16100
H3572       H  0.91936408  0.65045054  0.75954312     0.09200
H3573       H  0.77388897  0.65210954  0.75100964     0.07000
H3574       H  0.78764349  0.68546039  0.76268799     0.08200
H3575       H  0.76323372  0.65685278  0.77284235     0.07300
H3576       H  0.91596778  0.60231529  0.77665881     0.02100
H3577       H  0.89731641  0.57063196  0.76545758     0.02600
H3578       H  0.89346965  0.57428029  0.78833192     0.06100
H3579       H  0.85006238  0.58393775  0.71180386     0.05100
H3580       H  0.83040028  0.61104566  0.72542308    -0.00700
H3581       H  0.84680643  0.57582171  0.73436701     0.00800
H3582       H  0.96661105  0.67882424  0.74247236     0.04500
H3583       H  0.98738438  0.65122051  0.72950642     0.06400
H3584       H  0.97808672  0.64162413  0.75111404     0.07300
C3585       C  0.97476280  0.53496525  0.00752563    -0.22300
C3586       C  0.99928181  0.51362813  0.00693655     0.09600
C3587       C  0.52296971  0.51481884  0.01939654     0.10000
C3588       C  0.52156366  0.53752284  0.03225560    -0.17300
C3589       C  0.99690016  0.55899443  0.03298931    -0.27700
C3590       C  0.97331410  0.55787823  0.02023799     0.18400
C3591       C  0.99926591  0.99003495  0.99320935     0.12300
C3592       C  0.54937371  0.99190860  0.01921131    -0.12000
H3593       H  0.53967860  0.53832566  0.04190967     0.12600
C3594       C  0.94693430  0.58089863  0.01894165    -0.22900
H3595       H  0.95677599  0.53397739  0.99779169     0.08300
C3596       C  0.98230058  0.96220725  0.99487329     0.04600
C3597       C  0.98222988  0.94098652  0.98129188    -0.20100
C3598       C  0.99889270  0.94685340  0.96612238    -0.12400
C3599       C  0.51567772  0.97497645  0.96438988     0.13300
C3600       C  0.51575125  0.99615567  0.97804988    -0.22800
C3601       C  0.96453105  0.95482575  0.01104599    -0.05900
H3602       H  0.96952015  0.91937797  0.98263595     0.14800
C3603       C  0.53270848  0.98400493  0.94820364    -0.16100
H3604       H  0.52857176  0.51779828  0.97671182     0.09200
H3605       H  0.92443094  0.56864460  0.02071929     0.07000
H3606       H  0.94716211  0.59180241  0.00601272     0.08200
H3607       H  0.94820590  0.59998794  0.02830649     0.07300
H3608       H  0.56241749  0.99411809  0.00697005     0.02100
H3609       H  0.54020866  0.96790648  0.02040211     0.02600
H3610       H  0.56586319  0.99593561  0.02993265     0.06100
H3611       H  0.95280437  0.93189812  0.01029391     0.05100
H3612       H  0.94645205  0.97279081  0.01326888    -0.00700
H3613       H  0.98070733  0.95432510  0.02213335     0.00800
H3614       H  0.52368449  0.00663754  0.94349055     0.04500
H3615       H  0.52979340  0.96707713  0.93767343     0.06400
H3616       H  0.55793023  0.98642563  0.95096552     0.07300
C3617       C  0.98059308  0.78841094  0.99562961    -0.22300
C3618       C  0.50396307  0.76581448  0.99561298     0.09600
C3619       C  0.52652284  0.76577179  0.98246365     0.10000
C3620       C  0.52498928  0.78831917  0.96942683    -0.17300
C3621       C  0.00113974  0.81069068  0.96913884    -0.27700
C3622       C  0.97885335  0.81093240  0.98262410     0.18400
C3623       C  0.50350901  0.74169615  0.00918225     0.12300
C3624       C  0.55209142  0.74185159  0.98220071    -0.12000
H3625       H  0.54222470  0.78816998  0.95926473     0.12600
C3626       C  0.95371129  0.83530803  0.98380807    -0.22900
H3627       H  0.96350234  0.78825107  0.00587129     0.08300
C3628       C  0.51782174  0.74633494  0.02523784     0.04600
C3629       C  0.51659252  0.72262632  0.03764635    -0.20100
C3630       C  0.00063433  0.69477705  0.03448287    -0.12400
C3631       C  0.98600059  0.69041425  0.01839813     0.13300
C3632       C  0.98775193  0.71392035  0.00594043    -0.22800
C3633       C  0.53424065  0.77631377  0.02923832    -0.05900
H3634       H  0.52779613  0.72597593  0.04994999     0.14800
C3635       C  0.96944562  0.66066542  0.01403299    -0.16100
H3636       H  0.97676625  0.71067971  0.99356571     0.09200
H3637       H  0.94006302  0.83313908  0.99586077     0.07000
H3638       H  0.93713319  0.83284941  0.97300490     0.08200
H3639       H  0.96431302  0.85880649  0.98358041     0.07300
H3640       H  0.54186267  0.71824706  0.98135879     0.02100
H3641       H  0.56610879  0.74355583  0.99410928     0.02600
H3642       H  0.56792921  0.74516214  0.97107619     0.06100
H3643       H  0.54422613  0.77615572  0.04236987     0.05100
H3644       H  0.51755079  0.79593695  0.02833298    -0.00700
H3645       H  0.55348356  0.78011892  0.01995782     0.00800
H3646       H  0.94893251  0.65759091  0.02251813     0.04500
H3647       H  0.98562098  0.64074574  0.01560178     0.06400
H3648       H  0.96093946  0.66064410  0.00058712     0.07300
C3649       C  0.59805602  0.78160051  0.86974967    -0.22300
C3650       C  0.61608559  0.76404712  0.88105716     0.09600
C3651       C  0.61272243  0.76799360  0.89887923     0.10000
C3652       C  0.59129914  0.78988540  0.90504952    -0.17300
C3653       C  0.57324720  0.80803680  0.89376888    -0.27700
C3654       C  0.57667201  0.80357307  0.87576358     0.18400
C3655       C  0.63918887  0.74250820  0.87374050     0.12300
C3656       C  0.63198108  0.74932307  0.91132067    -0.12000
H3657       H  0.58884324  0.79295066  0.91877291     0.12600
C3658       C  0.55891644  0.82227346  0.86260255    -0.22900
H3659       H  0.60111564  0.77827782  0.85607089     0.08300
C3660       C  0.63122487  0.71181227  0.86938405     0.04600
C3661       C  0.65379718  0.69261907  0.86192428    -0.20100
C3662       C  0.68393595  0.70364005  0.85859443    -0.12400
C3663       C  0.69192725  0.73445847  0.86307947     0.13300
C3664       C  0.66923888  0.75358725  0.87046255    -0.22800
C3665       C  0.59893157  0.69945793  0.87254123    -0.05900
H3666       H  0.64785485  0.66897282  0.85853570     0.14800
C3667       C  0.72423714  0.74767487  0.86095857    -0.16100
H3668       H  0.67509378  0.77726874  0.87386432     0.09200
H3669       H  0.53363359  0.81734667  0.86366549     0.07000
H3670       H  0.56599484  0.81642397  0.84929133     0.08200
H3671       H  0.56340328  0.84742453  0.86445903     0.07300
H3672       H  0.65707648  0.75399699  0.90911166     0.02100
H3673       H  0.62745301  0.72418846  0.90948940     0.02600
H3674       H  0.62644458  0.75523265  0.92483989     0.06100
H3675       H  0.59666182  0.67492072  0.86838863     0.05100
H3676       H  0.58173079  0.71355255  0.86529350    -0.00700
H3677       H  0.59337598  0.70061991  0.88642804     0.00800
H3678       H  0.72347074  0.76773864  0.85199350     0.04500
H3679       H  0.74141167  0.73072721  0.85605102     0.06400
H3680       H  0.73288078  0.75580980  0.87358552     0.07300
C3681       C  0.85906121  0.70887648  0.87946402    -0.22300
C3682       C  0.86288576  0.73891606  0.87297809     0.09600
C3683       C  0.84690642  0.74805150  0.85801389     0.10000
C3684       C  0.82591790  0.72735011  0.85039573    -0.17300
C3685       C  0.82099379  0.69749367  0.85722765    -0.27700
C3686       C  0.83892901  0.68771622  0.87156983     0.18400
C3687       C  0.88396394  0.76040868  0.88200737     0.12300
C3688       C  0.85197824  0.77964676  0.85013832    -0.12000
H3689       H  0.81262566  0.73490362  0.83933681     0.12600
C3690       C  0.83849169  0.65509832  0.87865864    -0.22900
H3691       H  0.87219575  0.70178411  0.89068487     0.08300
C3692       C  0.87251423  0.78207836  0.89396899     0.04600
C3693       C  0.89312780  0.80337390  0.90138183    -0.20100
C3694       C  0.92499739  0.80303412  0.89733494    -0.12400
C3695       C  0.93675583  0.77946206  0.88641733     0.13300
C3696       C  0.91590494  0.75889750  0.87860017    -0.22800
C3697       C  0.83857257  0.78273773  0.89885102    -0.05900
H3698       H  0.88411992  0.82101808  0.90994017     0.14800
C3699       C  0.97102378  0.77452434  0.88311764    -0.16100
H3700       H  0.92463202  0.74139678  0.86985379     0.09200
H3701       H  0.82750977  0.65503083  0.89155309     0.07000
H3702       H  0.86274461  0.64644749  0.87988506     0.08200
H3703       H  0.82632023  0.63839554  0.87029924     0.07300
H3704       H  0.87686577  0.78238075  0.84660167     0.02100
H3705       H  0.84551453  0.79806673  0.85938987     0.02600
H3706       H  0.83778677  0.78296731  0.83837887     0.06100
H3707       H  0.83357830  0.80103096  0.90847722     0.05100
H3708       H  0.83182095  0.75998765  0.90445542    -0.00700
H3709       H  0.82401209  0.78737302  0.88739046     0.00800
H3710       H  0.97714530  0.74998735  0.88596204     0.04500
H3711       H  0.98619036  0.78896623  0.89132271     0.06400
H3712       H  0.97635804  0.77942956  0.86943983     0.07300
C3713       C  0.86620882  0.53564023  0.86511498    -0.22300
C3714       C  0.85551895  0.50729022  0.87172408     0.09600
C3715       C  0.82382359  0.99970842  0.87044479     0.10000
C3716       C  0.80305585  0.52082573  0.86298928    -0.17300
C3717       C  0.81362572  0.54940400  0.85661832    -0.27700
C3718       C  0.84562140  0.55684632  0.85749549     0.18400
C3719       C  0.87829978  0.98564480  0.87931598     0.12300
C3720       C  0.81175168  0.96915372  0.87713542    -0.12000
H3721       H  0.77847274  0.51530496  0.86225933     0.12600
C3722       C  0.85889450  0.58644649  0.85018300    -0.22900
H3723       H  0.89079766  0.54114142  0.86582001     0.08300
C3724       C  0.89579561  0.96534887  0.86900278     0.04600
C3725       C  0.91615088  0.94424323  0.87681289    -0.20100
C3726       C  0.91950267  0.94279056  0.89477274    -0.12400
C3727       C  0.90217873  0.96373817  0.90509272     0.13300
C3728       C  0.88178577  0.98488270  0.89716546    -0.22800
C3729       C  0.89264105  0.96570336  0.84975483    -0.05900
H3730       H  0.92915980  0.92839184  0.86875971     0.14800
C3731       C  0.90532347  0.96460544  0.92434348    -0.16100
H3732       H  0.86825000  0.00081327  0.90491331     0.09200
H3733       H  0.87635206  0.58071773  0.84016632     0.07000
H3734       H  0.87058424  0.59970213  0.86051009     0.08200
H3735       H  0.84102969  0.60158378  0.84422313     0.07300
H3736       H  0.81631061  0.96729834  0.89111056     0.02100
H3737       H  0.82358958  0.94974400  0.87043140     0.02600
H3738       H  0.78629372  0.96675860  0.87507301     0.06100
H3739       H  0.90782781  0.94807419  0.84360105     0.05100
H3740       H  0.89879680  0.48834017  0.84466767    -0.00700
H3741       H  0.86818517  0.96067206  0.84612906     0.00800
H3742       H  0.89145584  0.98374204  0.93005567     0.04500
H3743       H  0.93005636  0.96831326  0.92790762     0.06400
H3744       H  0.89674348  0.94257178  0.93003352     0.07300
C3745       C  0.58110399  0.98709058  0.87155225    -0.22300
C3746       C  0.61183377  0.98913495  0.87728145     0.09600
C3747       C  0.62186828  0.97054849  0.89110320     0.10000
C3748       C  0.60115229  0.94915841  0.89845302    -0.17300
C3749       C  0.57045416  0.94608267  0.89240781    -0.27700
C3750       C  0.56013393  0.96594710  0.87894376     0.18400
C3751       C  0.63301790  0.51128281  0.86877234     0.12300
C3752       C  0.65449286  0.47315157  0.89799286    -0.12000
H3753       H  0.60924818  0.93437614  0.90879695     0.12600
C3754       C  0.52706728  0.96575816  0.87243498    -0.22900
H3755       H  0.57361248  0.00202312  0.86112510     0.08300
C3756       C  0.65320909  0.00161550  0.85544352     0.04600
C3757       C  0.67406054  0.52318581  0.84841866    -0.20100
C3758       C  0.67536020  0.55391613  0.85435785    -0.12400
C3759       C  0.65366208  0.56390051  0.86691175     0.13300
C3760       C  0.63316344  0.54222451  0.87417483    -0.22800
C3761       C  0.65246332  0.96884813  0.84874539    -0.05900
H3762       H  0.69030693  0.51558994  0.83864297     0.14800
C3763       C  0.65059486  0.59721070  0.87256904    -0.16100
H3764       H  0.61703868  0.54952762  0.88408736     0.09200
H3765       H  0.52199698  0.94353497  0.86585914     0.07000
H3766       H  0.52286222  0.98465188  0.86298660     0.08200
H3767       H  0.51064801  0.96918652  0.88327815     0.07300
H3768       H  0.65846054  0.49715343  0.90265090     0.02100
H3769       H  0.67171477  0.46783114  0.88780741     0.02600
H3770       H  0.65856472  0.45691077  0.90885286     0.06100
H3771       H  0.66963048  0.96532746  0.83826687     0.05100
H3772       H  0.62894821  0.96363928  0.84362564    -0.00700
H3773       H  0.65793688  0.95218822  0.85919099     0.00800
H3774       H  0.62609621  0.60490612  0.87092996     0.04500
H3775       H  0.66509785  0.61340819  0.86497897     0.06400
H3776       H  0.65695653  0.59918852  0.88631651     0.07300
loop_ 
_geom_bond_atom_site_label_1 
_geom_bond_atom_site_label_2 
_geom_bond_distance 
_geom_bond_site_symmetry_2 
_ccdc_geom_bond_type 
Fe1           O7   2.049   1_655  S
Fe1           O6   2.045   1_655  S
Fe1        O1905   2.051       .  S
Fe1        O1902   2.051       .  S
Fe1        O1900   1.975       .  S
Fe2           O5   2.062       .  S
Fe2           O9   2.068       .  S
Fe2          O13   2.070       .  S
Fe2          O18   2.056       .  S
Fe2          O12   1.979       .  S
Fe3          O21   2.067       .  S
Fe3           O8   2.074       .  S
Fe3          O15   2.074       .  S
Fe3           O4   2.072       .  S
Fe3        O1900   1.983   1_455  S
O4           C11   1.271       .  A
O5           C19   1.269       .  A
O6           C11   1.264       .  A
O7           C10   1.264       .  A
O8         C1908   1.270       .  A
O9           C22   1.267       .  A
C10          O15   1.271       .  A
C10         C917   1.489       .  S
C11         C821   1.488       .  S
O12       Fe1889   1.975       .  S
O12       Fe1891   1.983       .  S
O13          C16   1.270       .  A
O14       Fe1889   2.051       .  S
O14          C16   1.266       .  A
C16         C862   1.478       .  S
O17       Fe1889   2.051       .  S
O17          C22   1.266       .  A
O18          C20   1.266       .  A
C19        O1909   1.270       .  A
C19         C766   1.475       .  S
C20        O1896   1.270       .  A
C20         C789   1.486       .  S
O21        C1907   1.270   1_455  A
C22         C894   1.488       .  S
Fe23         O39   2.047       .  S
Fe23         O29   2.067       .  S
Fe23         O36   2.065       .  S
Fe23         O28   2.053       .  S
Fe23         O34   1.965       .  S
Fe24         O27   2.068       .  S
Fe24         O31   2.074       .  S
Fe24         O35   2.065       .  S
Fe24         O40   2.065       .  S
Fe24         O34   1.967       .  S
Fe25         O43   2.065       .  S
Fe25         O30   2.062       .  S
Fe25         O37   2.058       .  S
Fe25         O26   2.074       .  S
Fe25         O34   1.968       .  S
O26          C33   1.269       .  A
O27          C41   1.271       .  A
O28          C33   1.266       .  A
O29          C32   1.269       .  A
O30          C42   1.269       .  A
O31          C44   1.270       .  A
C32          O37   1.268       .  A
C32         C926   1.477       .  S
C33         C885   1.467       .  S
O35          C38   1.270       .  A
O36          C38   1.268       .  A
C38         C853   1.483       .  S
O39          C44   1.265       .  A
O40          C42   1.268       .  A
C41          O43   1.269       .  A
C41         C693   1.477       .  S
C42         C725   1.477       .  S
C44         C830   1.469       .  S
Fe45         O61   2.055       .  S
Fe45         O51   2.051       .  S
Fe45         O58   2.060       .  S
Fe45         O50   2.051       .  S
Fe45         O56   1.964       .  S
Fe46         O49   2.061       .  S
Fe46         O53   2.075       .  S
Fe46         O57   2.067       .  S
Fe46         O62   2.066       .  S
Fe46         O56   1.964       .  S
Fe47         O65   2.075       .  S
Fe47         O52   2.071       .  S
Fe47         O59   2.071       .  S
Fe47         O48   2.081       .  S
Fe47         O56   1.968       .  S
O48          C55   1.273       .  A
O49          C63   1.270       .  A
O50          C55   1.270       .  A
O51          C54   1.264       .  A
O52          C64   1.271       .  A
O53          C66   1.271       .  A
C54          O59   1.268       .  A
C54         C606   1.476       .  S
C55         C629   1.486       .  S
O57          C60   1.269       .  A
O58          C60   1.267       .  A
C60         C670   1.475       .  S
O61          C66   1.267       .  A
O62          C64   1.267       .  A
C63          O65   1.273       .  A
C63         C542   1.487       .  S
C64         C501   1.499       .  S
C66         C565   1.472       .  S
Fe67         O80   2.063   1_655  S
Fe67         O72   2.050   1_655  S
Fe67       O1971   2.054       .  S
Fe67       O1961   2.060       .  S
Fe67         O78   1.962       .  S
Fe68         O79   2.059   1_655  S
Fe68         O84   2.068   1_655  S
Fe68       O1959   2.054       .  S
Fe68       O1963   2.074       .  S
Fe68         O78   1.963       .  S
Fe69         O74   2.060   1_655  S
Fe69         O70   2.086   1_655  S
Fe69       O1975   2.077       .  S
Fe69       O1969   2.064       .  S
Fe69         O78   1.963       .  S
O70          C77   1.274       .  A
O71       Fe1956   2.054       .  S
O71          C85   1.268       .  A
O72          C77   1.267       .  A
O73       Fe1955   2.060       .  S
O73          C76   1.266       .  A
O74          C86   1.270       .  A
O75       Fe1956   2.074       .  S
O75          C88   1.271       .  A
C76          O81   1.268       .  A
C76         C597   1.471       .  S
C77         C574   1.485       .  S
O79          C82   1.267       .  A
O80          C82   1.268       .  A
O81       Fe1957   2.064       .  S
C82         C661   1.472       .  S
O83       Fe1955   2.054       .  S
O83          C88   1.267       .  A
O84          C86   1.269       .  A
C85          O87   1.272       .  A
C85         C734   1.475       .  S
C86         C702   1.486       .  S
O87       Fe1957   2.077       .  S
C88         C638   1.472       .  S
Fe89        O105   2.071       .  S
Fe89         O95   2.054       .  S
Fe89        O102   2.057       .  S
Fe89         O94   2.070       .  S
Fe89        O100   1.958       .  S
Fe90         O93   2.077       .  S
Fe90         O97   2.060       .  S
Fe90        O101   2.078       .  S
Fe90        O106   2.059       .  S
Fe90        O100   1.961       .  S
Fe91        O109   2.062       .  S
Fe91         O96   2.076       .  S
Fe91        O103   2.077       .  S
Fe91         O92   2.063       .  S
Fe91        O100   1.961       .  S
O92          C99   1.268       .  A
O93         C107   1.271       .  A
O94          C99   1.271       .  A
O95          C98   1.268       .  A
O96         C108   1.272       .  A
O97         C110   1.268       .  A
C98         O103   1.271       .  A
C98         C469   1.482       .  S
C99         C382   1.489       .  S
O101        C104   1.271       .  A
O102        C104   1.267       .  A
C104        C414   1.475       .  S
O105        C110   1.271       .  A
O106        C108   1.269       .  A
C107        O109   1.268       .  A
C107        C510   1.475       .  S
C108        C533   1.477       .  S
C110        C437   1.487       .  S
Fe111       O124   2.055       .  S
Fe111       O116   2.060       .  S
Fe111      O2015   2.063       .  S
Fe111      O2005   2.055       .  S
Fe111       O122   1.979       .  S
Fe112       O123   2.074       .  S
Fe112       O128   2.067       .  S
Fe112      O2003   2.070       .  S
Fe112      O2007   2.069       .  S
Fe112       O122   1.982       .  S
Fe113       O118   2.066       .  S
Fe113       O114   2.063       .  S
Fe113      O2019   2.067       .  S
Fe113      O2013   2.071       .  S
Fe113       O122   1.982       .  S
O114        C121   1.269       .  A
O115      Fe2000   2.070   1_455  S
O115        C129   1.270       .  A
O116        C121   1.268       .  A
O117      Fe1999   2.055       .  S
O117        C120   1.266       .  A
O118        C130   1.268       .  A
O119      Fe2000   2.069   1_455  S
O119        C132   1.269       .  A
C120        O125   1.269       .  A
C120        C478   1.472       .  S
C121        C446   1.474       .  S
O123        C126   1.270       .  A
O124        C126   1.267       .  A
O125      Fe2001   2.071   1_455  S
C126        C405   1.486       .  S
O127      Fe1999   2.063       .  S
O127        C132   1.268       .  A
O128        C130   1.269       .  A
C129        O131   1.271       .  A
C129        C309   1.476       .  S
C130        C341   1.482       .  S
O131      Fe2001   2.067   1_455  S
C132        C373   1.481       .  S
Fe133       O139   2.066       .  S
Fe133       O138   2.053       .  S
Fe133      O2037   2.055       .  S
Fe133      O2034   2.061       .  S
Fe133       O144   1.968       .  S
Fe134       O137   2.064       .  S
Fe134       O141   2.075       .  S
Fe134       O145   2.067       .  S
Fe134       O150   2.076       .  S
Fe134      O2032   1.969   1_455  S
Fe135       O153   2.076       .  S
Fe135       O140   2.060       .  S
Fe135       O147   2.061       .  S
Fe135       O136   2.076       .  S
Fe135       O144   1.969       .  S
O136        C143   1.270       .  A
O137       C2039   1.269       .  A
O138        C143   1.267       .  A
O139        C142   1.269       .  A
O140        C152   1.268       .  A
O141        C154   1.269       .  A
C142        O147   1.269       .  A
C142        C213   1.479       .  S
C143        C245   1.482       .  S
O144      Fe2022   1.968       .  S
O145        C148   1.270       .  A
O146      Fe2021   2.061   1_455  S
O146        C148   1.268       .  A
C148        C286   1.476       .  S
O149      Fe2021   2.055   1_455  S
O149        C154   1.268       .  A
O150       C2040   1.271   1_455  A
C151        O153   1.271       .  A
C151       O2025   1.269       .  A
C151        C798   1.481       .  S
C152       O2038   1.271       .  A
C152        C757   1.482       .  S
C154        C190   1.493       .  S
Fe155       O171   2.059       .  S
Fe155       O161   2.050       .  S
Fe155       O168   2.059       .  S
Fe155       O160   2.055       .  S
Fe155       O166   1.972       .  S
Fe156       O159   2.066       .  S
Fe156       O163   2.069       .  S
Fe156       O167   2.064       .  S
Fe156       O172   2.063       .  S
Fe156       O166   1.974       .  S
Fe157       O175   2.073       .  S
Fe157       O162   2.069       .  S
Fe157       O169   2.074       .  S
Fe157       O158   2.073       .  S
Fe157       O166   1.973       .  S
O158        C165   1.272       .  A
O159        C173   1.270       .  A
O160        C165   1.268       .  A
O161        C164   1.263       .  A
O162        C174   1.269       .  A
O163        C176   1.268       .  A
C164        O169   1.270       .  A
C164        C222   1.490       .  S
C165        C181   1.483       .  S
O167        C170   1.268       .  A
O168        C170   1.268       .  A
C170        C277   1.489       .  S
O171        C176   1.267       .  A
O172        C174   1.267       .  A
C173        O175   1.272       .  A
C173        C350   1.480       .  S
C174        C318   1.486       .  S
C176        C254   1.470       .  S
C177        C178   1.401       .  A
C177        C182   1.403       .  A
C177        H187   1.085       .  S
C178        C183   1.482       .  S
C178        C179   1.411       .  A
C179        C180   1.402       .  A
C179        C184   1.507       .  S
C180        C181   1.406       .  A
C180        H185   1.084       .  S
C181        C182   1.420       .  A
C182        C186   1.509       .  S
C183        C188   1.408       .  A
C183        C192   1.400       .  A
C184        H200   1.109       .  S
C184        H201   1.110       .  S
C184        H202   1.111       .  S
C186        H197   1.111       .  S
C186        H198   1.110       .  S
C186        H199   1.107       .  S
C188        C189   1.402       .  A
C188        C193   1.507       .  S
C189        C190   1.410       .  A
C189        H194   1.082       .  S
C190        C191   1.423       .  A
C191        C192   1.404       .  A
C191        C195   1.508       .  S
C192        H196   1.084       .  S
C193        H203   1.111       .  S
C193        H204   1.109       .  S
C193        H205   1.110       .  S
C195        H206   1.111       .  S
C195        H207   1.110       .  S
C195        H208   1.109       .  S
C209        C210   1.399       .  A
C209        C214   1.402       .  A
C209        H219   1.085       .  S
C210        C215   1.477       .  S
C210        C211   1.409       .  A
C211        C212   1.402       .  A
C211        C216   1.507       .  S
C212        C213   1.405       .  A
C212        H217   1.084       .  S
C213        C214   1.419       .  A
C214        C218   1.508       .  S
C215        C220   1.408       .  A
C215        C224   1.397       .  A
C216        H232   1.110       .  S
C216        H233   1.110       .  S
C216        H234   1.111       .  S
C218        H229   1.110       .  S
C218        H230   1.111       .  S
C218        H231   1.105       .  S
C220        C221   1.403       .  A
C220        C225   1.506       .  S
C221        C222   1.408       .  A
C221        H226   1.084       .  S
C222        C223   1.425       .  A
C223        C224   1.403       .  A
C223        C227   1.509       .  S
C224        H228   1.085       .  S
C225        H235   1.111       .  S
C225        H236   1.110       .  S
C225        H237   1.110       .  S
C227        H238   1.111       .  S
C227        H239   1.108       .  S
C227        H240   1.109       .  S
C241        C242   1.400       .  A
C241        C246   1.403       .  A
C241       H1195   1.085   1_545  S
C242       C1191   1.477   1_545  S
C242        C243   1.408       .  A
C243        C244   1.401       .  A
C243        C248   1.507       .  S
C244        C245   1.407       .  A
C244        H249   1.084       .  S
C245        C246   1.419       .  A
C246        C250   1.508       .  S
C247       C1186   1.477       .  S
C247        C252   1.410       .  A
C247        C256   1.401       .  A
C248        H264   1.110       .  S
C248        H265   1.110       .  S
C248        H266   1.111       .  S
C250        H261   1.110       .  S
C250        H262   1.111       .  S
C250        H263   1.106       .  S
H251       C1185   1.085       .  S
C252        C253   1.402       .  A
C252       C1201   1.507       .  S
C253        C254   1.403       .  A
C253        H258   1.085       .  S
C254        C255   1.414       .  A
C255        C256   1.402       .  A
C255        C259   1.507       .  S
C256        H260   1.085       .  S
C257       C1196   1.507       .  S
C257        H267   1.111       .  S
C257        H268   1.110       .  S
C257        H269   1.110       .  S
C259        H270   1.110       .  S
C259        H271   1.108       .  S
C259        H272   1.110       .  S
C273        C274   1.399       .  A
C273        C278   1.404       .  A
C273        H283   1.084       .  S
C274       C1223   1.476       .  S
C274        C275   1.406       .  A
C275        C276   1.401       .  A
C275        C280   1.507       .  S
C276        C277   1.411       .  A
C276        H281   1.084       .  S
C277        C278   1.421       .  A
C278        C282   1.508       .  S
C279       C1218   1.476   1_545  S
C279        C284   1.408       .  A
C279        C288   1.399       .  A
C280        H297   1.109       .  S
C280        H298   1.111       .  S
C280       H1240   1.110       .  S
C282        H293   1.111       .  S
C282        H294   1.110       .  S
C282        H295   1.110       .  S
C284        C285   1.403       .  A
C284       C1233   1.506   1_545  S
C285        C286   1.407       .  A
C285        H290   1.084       .  S
C286        C287   1.418       .  A
C287        C288   1.401       .  A
C287        C291   1.508       .  S
C288        H292   1.085       .  S
C289       C1228   1.506       .  S
C289        H299   1.111       .  S
C289        H300   1.110       .  S
C289        H301   1.110       .  S
C291        H302   1.111       .  S
C291        H303   1.104       .  S
C291        H304   1.110       .  S
H296       C1224   1.110       .  S
C305        C306   1.400       .  A
C305        C310   1.403       .  A
C305        H315   1.085       .  S
C306        C311   1.482       .  S
C306        C307   1.411       .  A
C307        C308   1.405       .  A
C307        C312   1.506       .  S
C308        C309   1.404       .  A
C308        H313   1.084       .  S
C309        C310   1.417       .  A
C310        C314   1.509       .  S
C311        C316   1.410       .  A
C311        C320   1.399       .  A
C312        H328   1.110       .  S
C312        H329   1.110       .  S
C312        H330   1.111       .  S
C314        H325   1.111       .  S
C314        H326   1.110       .  S
C314        H327   1.107       .  S
C316        C317   1.405       .  A
C316        C321   1.506       .  S
C317        C318   1.406       .  A
C317        H322   1.084       .  S
C318        C319   1.420       .  A
C319        C320   1.405       .  A
C319        C323   1.509       .  S
C320        H324   1.084       .  S
C321        H331   1.111       .  S
C321        H332   1.110       .  S
C321        H333   1.110       .  S
C323        H334   1.109       .  S
C323        H335   1.111       .  S
C323        H336   1.111       .  S
C337        C338   1.402       .  A
C337        C342   1.406       .  A
C337        H347   1.084       .  S
C338        C343   1.483       .  S
C338        C339   1.409       .  A
C339        C340   1.403       .  A
C339        C344   1.506       .  S
C340        C341   1.405       .  A
C340        H345   1.084       .  S
C341        C342   1.419       .  A
C342        C346   1.508       .  S
C343        C348   1.409       .  A
C343        C352   1.403       .  A
C344        H360   1.110       .  S
C344        H361   1.110       .  S
C344        H362   1.111       .  S
C346        H357   1.111       .  S
C346        H358   1.110       .  S
C346        H359   1.106       .  S
C348        C349   1.402       .  A
C348        C353   1.507       .  S
C349        C350   1.405       .  A
C349        H354   1.084       .  S
C350        C351   1.418       .  A
C351        C352   1.407       .  A
C351        C355   1.508       .  S
C352        H356   1.084       .  S
C353        H363   1.111       .  S
C353        H364   1.110       .  S
C353        H365   1.110       .  S
C355        H366   1.110       .  S
C355        H367   1.107       .  S
C355        H368   1.111       .  S
C369        C370   1.401       .  A
C369        C374   1.404       .  A
C369        H379   1.085       .  S
C370        C375   1.483       .  S
C370        C371   1.411       .  A
C371        C372   1.404       .  A
C371        C376   1.507       .  S
C372        C373   1.405       .  A
C372        H377   1.084       .  S
C373        C374   1.418       .  A
C374        C378   1.508       .  S
C375        C380   1.409       .  A
C375        C384   1.401       .  A
C376        H392   1.110       .  S
C376        H393   1.110       .  S
C376        H394   1.111       .  S
C378        H389   1.111       .  S
C378        H390   1.110       .  S
C378        H391   1.106       .  S
C380        C381   1.402       .  A
C380        C385   1.507       .  S
C381        C382   1.408       .  A
C381        H386   1.084       .  S
C382        C383   1.420       .  A
C383        C384   1.406       .  A
C383        C387   1.508       .  S
C384        H388   1.084       .  S
C385        H395   1.111       .  S
C385        H396   1.110       .  S
C385        H397   1.110       .  S
C387        H398   1.111       .  S
C387        H399   1.110       .  S
C387        H400   1.110       .  S
C401        C402   1.401       .  A
C401        C406   1.405       .  A
C401        H411   1.085       .  S
C402        C407   1.481       .  S
C402        C403   1.408       .  A
C403        C404   1.402       .  A
C403        C408   1.507       .  S
C404        C405   1.408       .  A
C404        H409   1.084       .  S
C405        C406   1.420       .  A
C406        C410   1.508       .  S
C407        C412   1.411       .  A
C407        C416   1.400       .  A
C408        H424   1.110       .  S
C408        H425   1.110       .  S
C408        H426   1.111       .  S
C410        H421   1.111       .  S
C410        H422   1.110       .  S
C410        H423   1.106       .  S
C412        C413   1.405       .  A
C412        C417   1.506       .  S
C413        C414   1.405       .  A
C413        H418   1.084       .  S
C414        C415   1.417       .  A
C415        C416   1.401       .  A
C415        C419   1.510       .  S
C416        H420   1.085       .  S
C417        H427   1.111       .  S
C417        H428   1.110       .  S
C417        H429   1.110       .  S
C419        H430   1.111       .  S
C419        H431   1.106       .  S
C419        H432   1.110       .  S
C433        C434   1.399       .  A
C433        C438   1.404       .  A
C433        H443   1.084       .  S
C434        C439   1.477   1_545  S
C434        C435   1.407       .  A
C435        C436   1.401       .  A
C435        C440   1.507       .  S
C436        C437   1.409       .  A
C436        H441   1.084       .  S
C437        C438   1.421       .  A
C438        C442   1.508       .  S
C439        C444   1.410   1_565  A
C439       C1392   1.400       .  A
C440        H457   1.110       .  S
C440        H458   1.111       .  S
C440       H1400   1.110   1_545  S
C442        H453   1.110       .  S
C442        H454   1.111       .  S
C442        H455   1.110       .  S
C444       C1389   1.402   1_545  A
C444        C449   1.507       .  S
C445        C446   1.404       .  A
C445       C1388   1.402       .  A
C445        H450   1.084       .  S
C446        C447   1.418       .  A
C447        C448   1.402       .  A
C447        C451   1.509       .  S
C448       C1383   1.400       .  A
C448        H452   1.085       .  S
C449        H459   1.111       .  S
C449        H460   1.110       .  S
C449        H461   1.110       .  S
C451        H462   1.110       .  S
C451        H463   1.107       .  S
C451        H464   1.111       .  S
H456       C1384   1.110       .  S
C465        C466   1.400       .  A
C465        C470   1.403       .  A
C465       H1419   1.085       .  S
C466        C471   1.478   1_545  S
C466        C467   1.408       .  A
C467        C468   1.401       .  A
C467        C472   1.507       .  S
C468        C469   1.407       .  A
C468        H473   1.084       .  S
C469        C470   1.420       .  A
C470        C474   1.509       .  S
C471       C1420   1.410       .  A
C471       C1424   1.400   1_565  A
C472        H488   1.110       .  S
C472        H489   1.110       .  S
C472        H490   1.111       .  S
C474        H485   1.111       .  S
C474        H486   1.110       .  S
C474        H487   1.105       .  S
H475       C1409   1.085       .  S
C476        C477   1.403       .  A
C476       C1415   1.410       .  A
C476        C481   1.506       .  S
C477        C478   1.403       .  A
C477        H482   1.083       .  S
C478        C479   1.417       .  A
C479        C480   1.401       .  A
C479        C483   1.509       .  S
C480       C1415   1.400       .  A
C480        H484   1.085       .  S
C481        H491   1.111       .  S
C481        H492   1.110       .  S
C481       H1437   1.110       .  S
C483        H494   1.111       .  S
C483        H495   1.106       .  S
C483        H496   1.110       .  S
H493       C1425   1.110       .  S
C497        C498   1.398       .  A
C497        C502   1.405       .  A
C497        H507   1.084       .  S
C498       C1447   1.484       .  S
C498        C499   1.408       .  A
C499        C500   1.405       .  A
C499        C504   1.506       .  S
C500        C501   1.411       .  A
C500        H505   1.083       .  S
C501        C502   1.427       .  A
C502        C506   1.508       .  S
C503       C1442   1.484   1_545  S
C503        C508   1.412       .  A
C503        C512   1.400       .  A
C504        H521   1.110       .  S
C504        H522   1.111       .  S
C504       H1464   1.110       .  S
C506        H517   1.110       .  S
C506        H518   1.111       .  S
C506        H519   1.108       .  S
C508        C509   1.406       .  A
C508       C1457   1.506   1_545  S
C509        C510   1.404       .  A
C509        H514   1.084       .  S
C510        C511   1.416       .  A
C511        C512   1.402       .  A
C511        C515   1.509       .  S
C512        H516   1.085       .  S
C513       C1452   1.506       .  S
C513        H523   1.111       .  S
C513        H524   1.110       .  S
C513        H525   1.110       .  S
C515        H526   1.111       .  S
C515        H527   1.107       .  S
C515        H528   1.110       .  S
H520       C1448   1.110   1_545  S
C529        C530   1.401       .  A
C529        C534   1.404       .  A
C529        H539   1.085       .  S
C530        C535   1.480       .  S
C530        C531   1.409       .  A
C531        C532   1.402       .  A
C531        C536   1.506       .  S
C532        C533   1.405       .  A
C532        H537   1.084       .  S
C533        C534   1.418       .  A
C534        C538   1.509       .  S
C535        C540   1.408       .  A
C535        C544   1.399       .  A
C536        H552   1.110       .  S
C536        H553   1.110       .  S
C536        H554   1.111       .  S
C538        H549   1.110       .  S
C538        H550   1.111       .  S
C538        H551   1.107       .  S
C540        C541   1.403       .  A
C540        C545   1.506       .  S
C541        C542   1.408       .  A
C541        H546   1.084       .  S
C542        C543   1.421       .  A
C543        C544   1.404       .  A
C543        C547   1.508       .  S
C544        H548   1.084       .  S
C545        H555   1.111       .  S
C545        H556   1.110       .  S
C545        H557   1.110       .  S
C547        H558   1.111       .  S
C547        H559   1.111       .  S
C547        H560   1.110       .  S
C561        C562   1.400       .  A
C561        C566   1.401       .  A
C561        H571   1.085       .  S
C562        C567   1.478       .  S
C562        C563   1.410       .  A
C563        C564   1.404       .  A
C563        C568   1.506       .  S
C564        C565   1.404       .  A
C564        H569   1.084       .  S
C565        C566   1.417       .  A
C566        C570   1.509       .  S
C567        C572   1.409       .  A
C567        C576   1.398       .  A
C568        H584   1.110       .  S
C568        H585   1.110       .  S
C568        H586   1.111       .  S
C570        H581   1.111       .  S
C570        H582   1.110       .  S
C570        H583   1.106       .  S
C572        C573   1.404       .  A
C572        C577   1.506       .  S
C573        C574   1.406       .  A
C573        H578   1.084       .  S
C574        C575   1.421       .  A
C575        C576   1.403       .  A
C575        C579   1.509       .  S
C576        H580   1.084       .  S
C577        H587   1.111       .  S
C577        H588   1.110       .  S
C577        H589   1.110       .  S
C579        H590   1.111       .  S
C579        H591   1.111       .  S
C579        H592   1.110       .  S
C593        C594   1.402       .  A
C593        C598   1.404       .  A
C593        H603   1.084       .  S
C594        C599   1.477       .  S
C594        C595   1.409       .  A
C595        C596   1.400       .  A
C595        C600   1.507       .  S
C596        C597   1.403       .  A
C596        H601   1.085       .  S
C597        C598   1.415       .  A
C598        C602   1.508       .  S
C599        C604   1.411       .  A
C599        C608   1.398       .  A
C600        H616   1.110       .  S
C600        H617   1.109       .  S
C600        H618   1.111       .  S
C602        H613   1.111       .  S
C602        H614   1.110       .  S
C602        H615   1.107       .  S
C604        C605   1.405       .  A
C604        C609   1.506       .  S
C605        C606   1.404       .  A
C605        H610   1.084       .  S
C606        C607   1.418       .  A
C607        C608   1.400       .  A
C607        C611   1.510       .  S
C608        H612   1.084       .  S
C609        H619   1.111       .  S
C609        H620   1.110       .  S
C609        H621   1.109       .  S
C611        H622   1.109       .  S
C611        H623   1.111       .  S
C611        H624   1.111       .  S
C625        C626   1.400       .  A
C625        C630   1.405       .  A
C625        H635   1.084       .  S
C626       C1575   1.477       .  S
C626        C627   1.407       .  A
C627        C628   1.400       .  A
C627        C632   1.508       .  S
C628        C629   1.409       .  A
C628        H633   1.084       .  S
C629        C630   1.420       .  A
C630        C634   1.508       .  S
C631       C1570   1.477   1_545  S
C631        C640   1.401       .  A
C631       C1580   1.410       .  A
C632        H649   1.109       .  S
C632        H650   1.111       .  S
C632       H1592   1.110       .  S
C634        H645   1.109       .  S
C634        H646   1.111       .  S
C634        H647   1.111       .  S
C636       C1575   1.410       .  A
C636       C1581   1.400       .  A
C636        C641   1.508       .  S
C637        C638   1.403       .  A
C637       C1580   1.400       .  A
C637        H642   1.084       .  S
C638        C639   1.416       .  A
C639        C640   1.404       .  A
C639        C643   1.509       .  S
C640        H644   1.084       .  S
C641        H651   1.111       .  S
C641        H652   1.110       .  S
C641        H653   1.109       .  S
C643        H654   1.110       .  S
C643        H655   1.107       .  S
C643        H656   1.111       .  S
H648       C1576   1.110       .  S
C657        C658   1.398       .  A
C657        C662   1.399       .  A
C657       H1611   1.085   1_545  S
C658       C1607   1.475   1_545  S
C658        C659   1.410       .  A
C659        C660   1.404       .  A
C659        C664   1.506       .  S
C660        C661   1.404       .  A
C660        H665   1.084       .  S
C661        C662   1.418       .  A
C662        C666   1.510       .  S
C663       C1602   1.475       .  S
C663        C668   1.409       .  A
C663        C672   1.401       .  A
C664        H680   1.110       .  S
C664        H681   1.109       .  S
C664        H682   1.111       .  S
C666        H678   1.110       .  S
C666        H679   1.106       .  S
C666       H1621   1.111       .  S
H667       C1601   1.085       .  S
C668        C669   1.400       .  A
C668        C673   1.507       .  S
C669        C670   1.404       .  A
C669        H674   1.084       .  S
C670        C671   1.414       .  A
C671        C672   1.404       .  A
C671        C675   1.505       .  S
C672       H1620   1.084       .  S
C673        H683   1.111       .  S
C673        H684   1.110       .  S
C673        H685   1.109       .  S
C675        H686   1.107       .  S
C675        H687   1.110       .  S
C675       H1632   1.111       .  S
H676       C1616   1.084   1_545  S
H677       C1610   1.111       .  S
H688       C1619   1.111   1_545  S
C689        C690   1.398       .  A
C689        C694   1.400       .  A
C689        H699   1.085       .  S
C690        C695   1.479       .  S
C690        C691   1.410       .  A
C691        C692   1.405       .  A
C691        C696   1.506       .  S
C692        C693   1.405       .  A
C692        H697   1.084       .  S
C693        C694   1.420       .  A
C694        C698   1.510       .  S
C695        C700   1.409       .  A
C695        C704   1.399       .  A
C696        H712   1.110       .  S
C696        H713   1.110       .  S
C696        H714   1.111       .  S
C698        H709   1.111       .  S
C698        H710   1.110       .  S
C698        H711   1.105       .  S
C700        C701   1.402       .  A
C700        C705   1.506       .  S
C701        C702   1.406       .  A
C701        H706   1.084       .  S
C702        C703   1.422       .  A
C703        C704   1.404       .  A
C703        C707   1.509       .  S
C704        H708   1.084       .  S
C705        H715   1.111       .  S
C705        H716   1.110       .  S
C705        H717   1.110       .  S
C707        H718   1.109       .  S
C707        H719   1.110       .  S
C707        H720   1.111       .  S
C721        C722   1.399       .  A
C721        C726   1.400       .  A
C721        H731   1.085       .  S
C722        C727   1.482       .  S
C722        C723   1.413       .  A
C723        C724   1.404       .  A
C723        C728   1.507       .  S
C724        C725   1.405       .  A
C724        H729   1.084       .  S
C725        C726   1.420       .  A
C726        C730   1.510       .  S
C727        C732   1.413       .  A
C727        C736   1.401       .  A
C728        H744   1.109       .  S
C728        H745   1.110       .  S
C728        H746   1.111       .  S
C730        H741   1.111       .  S
C730        H742   1.110       .  S
C730        H743   1.105       .  S
C732        C733   1.403       .  A
C732        C737   1.508       .  S
C733        C734   1.403       .  A
C733        H738   1.084       .  S
C734        C735   1.418       .  A
C735        C736   1.402       .  A
C735        C739   1.509       .  S
C736        H740   1.085       .  S
C737        H747   1.111       .  S
C737        H748   1.109       .  S
C737        H749   1.110       .  S
C739        H750   1.110       .  S
C739        H751   1.106       .  S
C739        H752   1.111       .  S
C753        C754   1.398       .  A
C753        C758   1.402       .  A
C753        H763   1.085   1_554  S
C754       C1703   1.480   1_544  S
C754       C2643   1.409       .  A
C755        C756   1.404       .  A
C755       C2642   1.409   1_455  A
C755       C1704   1.506   1_545  S
C756       C2645   1.407   1_455  A
C756        H761   1.084       .  S
C757        C758   1.422       .  A
C757       C2644   1.407       .  A
C758        C762   1.509       .  S
C759       C1698   1.479   1_556  S
C759        C764   1.409       .  A
C759       C2656   1.402       .  A
C760       C1699   1.506       .  S
C760        H776   1.110       .  S
C760        H777   1.110       .  S
C760        H778   1.111       .  S
C762        H773   1.110       .  S
C762        H774   1.111       .  S
C762        H775   1.103       .  S
C764        C765   1.401       .  A
C764        C769   1.507   1_556  S
C765        C766   1.404       .  A
C765        H770   1.084       .  S
C766       C2655   1.416       .  A
C767        C768   1.405       .  A
C767       C2654   1.416   1_455  A
C767        C771   1.508       .  S
C768       C2647   1.402   1_455  A
C768       H1716   1.084       .  S
C769        H779   1.111       .  S
C769        H780   1.110       .  S
C769        H781   1.110       .  S
C771        H782   1.111       .  S
C771        H783   1.107       .  S
C771        H784   1.110       .  S
H772       C1712   1.084   1_545  S
C785        C790   1.403       .  A
C785       C2674   1.398       .  A
C785        H795   1.084   1_556  S
C786        C791   1.481   1_556  S
C786        C787   1.410       .  A
C786       C2673   1.398   1_455  A
C787        C788   1.405       .  A
C787        C792   1.506       .  S
C788       C2677   1.406       .  A
C788        H793   1.084       .  S
C789        C790   1.421       .  A
C789       C2676   1.406       .  A
C790        C794   1.509       .  S
C791        C796   1.410       .  A
C791       C2688   1.399   1_455  A
C792        H808   1.110       .  S
C792        H809   1.110       .  S
C792        H810   1.111       .  S
C794        H805   1.111       .  S
C794        H806   1.109       .  S
C794        H807   1.110       .  S
C796        C797   1.406       .  A
C796        C801   1.506       .  S
C797       C2686   1.405       .  A
C797        H802   1.084       .  S
C798        C799   1.417       .  A
C798       C2685   1.405       .  A
C799        C800   1.403       .  A
C799        C803   1.506       .  S
C800       C2679   1.399       .  A
C800        H804   1.084   1_554  S
C801        H811   1.111       .  S
C801        H812   1.110       .  S
C801        H813   1.110       .  S
C803        H814   1.109       .  S
C803        H815   1.110       .  S
C803        H816   1.111       .  S
C817        C818   1.395       .  A
C817        C822   1.400       .  A
C817        H827   1.084       .  S
C818        C823   1.474       .  S
C818        C819   1.408       .  A
C819        C820   1.403       .  A
C819        C824   1.506       .  S
C820        C821   1.408       .  A
C820        H825   1.084       .  S
C821        C822   1.425       .  A
C822        C826   1.510       .  S
C823        C828   1.409       .  A
C823        C832   1.400       .  A
C824        H840   1.110       .  S
C824        H841   1.110       .  S
C824        H842   1.111       .  S
C826        H837   1.110       .  S
C826        H838   1.111       .  S
C826        H839   1.111       .  S
C828        C829   1.401       .  A
C828        C833   1.506       .  S
C829        C830   1.403       .  A
C829        H834   1.084       .  S
C830        C831   1.416       .  A
C831        C832   1.400       .  A
C831        C835   1.510       .  S
C832        H836   1.085       .  S
C833        H843   1.111       .  S
C833        H844   1.110       .  S
C833        H845   1.110       .  S
C835        H846   1.110       .  S
C835        H847   1.107       .  S
C835        H848   1.111       .  S
C849        C850   1.397       .  A
C849        C854   1.401       .  A
C849        H859   1.085       .  S
C850        C855   1.477       .  S
C850        C851   1.409       .  A
C851        C852   1.403       .  A
C851        C856   1.507       .  S
C852        C853   1.407       .  A
C852        H857   1.084       .  S
C853        C854   1.422       .  A
C854        C858   1.508       .  S
C855        C860   1.410       .  A
C855        C864   1.399       .  A
C856        H872   1.110       .  S
C856        H873   1.109       .  S
C856        H874   1.111       .  S
C858        H869   1.110       .  S
C858        H870   1.111       .  S
C858        H871   1.105       .  S
C860        C861   1.402       .  A
C860        C865   1.507       .  S
C861        C862   1.405       .  A
C861        H866   1.084       .  S
C862        C863   1.419       .  A
C863        C864   1.402       .  A
C863        C867   1.510       .  S
C864        H868   1.085       .  S
C865        H875   1.111       .  S
C865        H876   1.110       .  S
C865        H877   1.109       .  S
C867        H878   1.111       .  S
C867        H879   1.107       .  S
C867        H880   1.110       .  S
C881        C882   1.401       .  A
C881        C886   1.402       .  A
C881        H891   1.084       .  S
C882       C1831   1.477   1_545  S
C882       C1827   1.410   1_545  A
C883       C1826   1.410       .  A
C883       C1828   1.402       .  A
C883        C888   1.506       .  S
C884        C885   1.402       .  A
C884       C1827   1.402   1_545  A
C884        H889   1.085       .  S
C885        C886   1.414       .  A
C886        C890   1.507       .  S
C887       C1826   1.478       .  S
C887        C892   1.407       .  A
C887        C896   1.400       .  A
C888        H904   1.110       .  S
C888        H905   1.110       .  S
C888        H906   1.111       .  S
C890        H901   1.110       .  S
C890        H902   1.110       .  S
C890        H903   1.108       .  S
C892        C893   1.400       .  A
C892        C897   1.507       .  S
C893        C894   1.409       .  A
C893        H898   1.084       .  S
C894        C895   1.421       .  A
C895        C896   1.406       .  A
C895        C899   1.508       .  S
C896        H900   1.084       .  S
C897        H907   1.111       .  S
C897        H909   1.110       .  S
C897       H1852   1.110       .  S
C899        H910   1.111       .  S
C899        H911   1.111       .  S
C899        H912   1.109       .  S
H908       C1841   1.110       .  S
C913        C914   1.397       .  A
C913        C918   1.404       .  A
C913        H923   1.084       .  S
C914       C1863   1.477       .  S
C914        C915   1.408       .  A
C915        C916   1.402       .  A
C915       C1864   1.507       .  S
C916        C917   1.408       .  A
C916        H921   1.084       .  S
C917        C918   1.423       .  A
C918        C922   1.509       .  S
C919       C1858   1.477   1_545  S
C919        C928   1.399       .  A
C919       C1868   1.410       .  A
C920       C1859   1.507       .  S
C920        H936   1.110       .  S
C920        H937   1.109       .  S
C920        H938   1.111       .  S
C922        H933   1.109       .  S
C922        H934   1.111       .  S
C922        H935   1.111       .  S
C924       C1863   1.410       .  A
C924       C1869   1.402       .  A
C924        C929   1.507       .  S
C925        C926   1.405       .  A
C925       C1868   1.402       .  A
C925        H930   1.084       .  S
C926        C927   1.418       .  A
C927        C928   1.402       .  A
C927        C931   1.508       .  S
C928        H932   1.085       .  S
C929        H939   1.111       .  S
C929        H940   1.110       .  S
C929        H941   1.109       .  S
C931        H942   1.111       .  S
C931        H943   1.106       .  S
C931        H944   1.110       .  S
Fe945      O2849   2.050       .  S
Fe945       O951   2.049   1_655  S
Fe945      O2846   2.052       .  S
Fe945       O950   2.045   1_655  S
Fe945      O2844   1.975       .  S
Fe946       O949   2.062       .  S
Fe946       O953   2.069       .  S
Fe946       O957   2.069       .  S
Fe946       O962   2.056       .  S
Fe946       O956   1.979       .  S
Fe947       O965   2.067       .  S
Fe947       O952   2.074       .  S
Fe947       O959   2.073       .  S
Fe947       O948   2.072       .  S
Fe947      O2844   1.983   1_455  S
O948        C955   1.271       .  A
O949        C963   1.269       .  A
O950        C955   1.264       .  A
O951        C954   1.264       .  A
O952       C2852   1.270       .  A
O953        C966   1.267       .  A
C954        O959   1.271       .  A
C954       C1861   1.489       .  S
C955       C1765   1.488       .  S
O956      Fe2833   1.975       .  S
O956      Fe2835   1.983       .  S
O957        C960   1.270       .  A
O958      Fe2833   2.051       .  S
O958        C960   1.266       .  A
C960       C1806   1.478       .  S
O961      Fe2833   2.050       .  S
O961        C966   1.266       .  A
O962        C964   1.266       .  A
C963       O2853   1.270       .  A
C963       C1710   1.475       .  S
C964       O2840   1.270       .  A
C964       C1733   1.486       .  S
O965       C2851   1.270   1_455  A
C966       C1838   1.489       .  S
Fe967       O983   2.047       .  S
Fe967       O973   2.067       .  S
Fe967       O980   2.065       .  S
Fe967       O972   2.053       .  S
Fe967       O978   1.965       .  S
Fe968       O971   2.068       .  S
Fe968       O975   2.073       .  S
Fe968       O979   2.065       .  S
Fe968       O984   2.064       .  S
Fe968       O978   1.967       .  S
Fe969       O987   2.065       .  S
Fe969       O974   2.062       .  S
Fe969       O981   2.059       .  S
Fe969       O970   2.074       .  S
Fe969       O978   1.968       .  S
O970        C977   1.269       .  A
O971        C985   1.271       .  A
O972        C977   1.266       .  A
O973        C976   1.269       .  A
O974        C986   1.269       .  A
O975        C988   1.270       .  A
C976        O981   1.268       .  A
C976       C1870   1.478       .  S
C977       C1829   1.467       .  S
O979        C982   1.270       .  A
O980        C982   1.268       .  A
C982       C1797   1.483       .  S
O983        C988   1.265       .  A
O984        C986   1.268       .  A
C985        O987   1.269       .  A
C985       C1637   1.477       .  S
C986       C1669   1.477       .  S
C988       C1774   1.469       .  S
Fe989      O1005   2.055       .  S
Fe989       O995   2.051       .  S
Fe989      O1002   2.061       .  S
Fe989       O994   2.051       .  S
Fe989      O1000   1.964       .  S
Fe990       O993   2.061       .  S
Fe990       O997   2.075       .  S
Fe990      O1001   2.067       .  S
Fe990      O1006   2.066       .  S
Fe990      O1000   1.964       .  S
Fe991      O1009   2.075       .  S
Fe991       O996   2.071       .  S
Fe991      O1003   2.071       .  S
Fe991       O992   2.081       .  S
Fe991      O1000   1.968       .  S
O992        C999   1.273       .  A
O993       C1007   1.270       .  A
O994        C999   1.270       .  A
O995        C998   1.264       .  A
O996       C1008   1.271       .  A
O997       C1010   1.271       .  A
C998       O1003   1.269       .  A
C998       C1550   1.476       .  S
C999       C1573   1.486       .  S
O1001      C1004   1.269       .  A
O1002      C1004   1.267       .  A
C1004      C1614   1.475       .  S
O1005      C1010   1.267       .  A
O1006      C1008   1.267       .  A
C1007      O1009   1.273       .  A
C1007      C1486   1.487       .  S
C1008      C1445   1.499       .  S
C1010      C1509   1.472       .  S
Fe1011     O2915   2.054       .  S
Fe1011     O2905   2.060       .  S
Fe1011     O1024   2.063   1_655  S
Fe1011     O1016   2.050   1_655  S
Fe1011     O1022   1.962       .  S
Fe1012     O2903   2.053       .  S
Fe1012     O2907   2.074       .  S
Fe1012     O1023   2.059   1_655  S
Fe1012     O1028   2.068   1_655  S
Fe1012     O1022   1.963       .  S
Fe1013     O2919   2.077       .  S
Fe1013     O1018   2.060   1_655  S
Fe1013     O2913   2.064       .  S
Fe1013     O1014   2.086   1_655  S
Fe1013     O1022   1.963       .  S
O1014      C1021   1.274       .  A
O1015     Fe2900   2.053       .  S
O1015      C1029   1.268       .  A
O1016      C1021   1.267       .  A
O1017     Fe2899   2.060       .  S
O1017      C1020   1.266       .  A
O1018      C1030   1.270       .  A
O1019     Fe2900   2.074       .  S
O1019      C1032   1.271       .  A
C1020      O1025   1.268       .  A
C1020      C1541   1.471       .  S
C1021      C1518   1.486       .  S
O1023      C1026   1.267       .  A
O1024      C1026   1.268       .  A
O1025     Fe2901   2.064       .  S
C1026      C1605   1.471       .  S
O1027     Fe2899   2.053       .  S
O1027      C1032   1.267       .  A
O1028      C1030   1.269       .  A
C1029      O1031   1.272       .  A
C1029      C1678   1.475       .  S
C1030      C1646   1.486       .  S
O1031     Fe2901   2.077       .  S
C1032      C1582   1.472       .  S
Fe1033     O1049   2.071       .  S
Fe1033     O1039   2.054       .  S
Fe1033     O1046   2.057       .  S
Fe1033     O1038   2.071       .  S
Fe1033     O1044   1.958       .  S
Fe1034     O1037   2.077       .  S
Fe1034     O1041   2.060       .  S
Fe1034     O1045   2.078       .  S
Fe1034     O1050   2.059       .  S
Fe1034     O1044   1.961       .  S
Fe1035     O1053   2.062       .  S
Fe1035     O1040   2.076       .  S
Fe1035     O1047   2.077       .  S
Fe1035     O1036   2.063       .  S
Fe1035     O1044   1.961       .  S
O1036      C1043   1.268       .  A
O1037      C1051   1.271       .  A
O1038      C1043   1.271       .  A
O1039      C1042   1.268       .  A
O1040      C1052   1.272       .  A
O1041      C1054   1.268       .  A
C1042      O1047   1.271       .  A
C1042      C1413   1.482       .  S
C1043      C1326   1.489       .  S
O1045      C1048   1.271       .  A
O1046      C1048   1.267       .  A
C1048      C1358   1.475       .  S
O1049      C1054   1.271       .  A
O1050      C1052   1.269       .  A
C1051      O1053   1.268       .  A
C1051      C1454   1.475       .  S
C1052      C1477   1.477       .  S
C1054      C1381   1.487       .  S
Fe1055     O2959   2.063       .  S
Fe1055     O2949   2.055       .  S
Fe1055     O1068   2.055       .  S
Fe1055     O1060   2.059       .  S
Fe1055     O1066   1.979       .  S
Fe1056     O2947   2.070       .  S
Fe1056     O2951   2.068       .  S
Fe1056     O1067   2.074       .  S
Fe1056     O1072   2.067       .  S
Fe1056     O1066   1.982       .  S
Fe1057     O2963   2.067       .  S
Fe1057     O1062   2.066       .  S
Fe1057     O2957   2.071       .  S
Fe1057     O1058   2.063       .  S
Fe1057     O1066   1.982       .  S
O1058      C1065   1.269       .  A
O1059     Fe2944   2.070   1_455  S
O1059      C1073   1.270       .  A
O1060      C1065   1.268       .  A
O1061     Fe2943   2.055       .  S
O1061      C1064   1.266       .  A
O1062      C1074   1.268       .  A
O1063     Fe2944   2.068   1_455  S
O1063      C1076   1.269       .  A
C1064      O1069   1.269       .  A
C1064      C1422   1.472       .  S
C1065      C1390   1.474       .  S
O1067      C1070   1.270       .  A
O1068      C1070   1.267       .  A
O1069     Fe2945   2.071       .  S
C1070      C1349   1.486       .  S
O1071     Fe2943   2.063       .  S
O1071      C1076   1.268       .  A
O1072      C1074   1.269       .  A
C1073      O1075   1.271       .  A
C1073      C1253   1.476       .  S
C1074      C1285   1.482       .  S
O1075     Fe2945   2.067       .  S
C1076      C1317   1.480       .  S
Fe1077     O2981   2.055       .  S
Fe1077     O1083   2.066       .  S
Fe1077     O2978   2.061       .  S
Fe1077     O1082   2.053       .  S
Fe1077     O1088   1.969       .  S
Fe1078     O1081   2.064       .  S
Fe1078     O1085   2.075       .  S
Fe1078     O1089   2.067       .  S
Fe1078     O1094   2.076       .  S
Fe1078     O2976   1.969   1_455  S
Fe1079     O1097   2.076       .  S
Fe1079     O1084   2.060       .  S
Fe1079     O1091   2.061       .  S
Fe1079     O1080   2.076       .  S
Fe1079     O1088   1.969       .  S
O1080      C1087   1.270       .  A
O1081      C2983   1.269       .  A
O1082      C1087   1.267       .  A
O1083      C1086   1.269       .  A
O1084      C1096   1.268       .  A
O1085      C1098   1.269       .  A
C1086      O1091   1.269       .  A
C1086      C1157   1.479       .  S
C1087      C1189   1.482       .  S
O1088     Fe2966   1.969       .  S
O1089      C1092   1.270       .  A
O1090     Fe2965   2.061   1_455  S
O1090      C1092   1.268       .  A
C1092      C1230   1.476       .  S
O1093     Fe2965   2.055   1_455  S
O1093      C1098   1.268       .  A
O1094      C2984   1.271   1_455  A
C1095      O2969   1.269       .  A
C1095      O1097   1.271       .  A
C1095      C1742   1.481       .  S
C1096      O2982   1.271       .  A
C1096      C1701   1.482       .  S
C1098      C1134   1.494       .  S
Fe1099     O1115   2.059       .  S
Fe1099     O1105   2.050       .  S
Fe1099     O1112   2.059       .  S
Fe1099     O1104   2.055       .  S
Fe1099     O1110   1.972       .  S
Fe1100     O1103   2.066       .  S
Fe1100     O1107   2.069       .  S
Fe1100     O1111   2.064       .  S
Fe1100     O1116   2.063       .  S
Fe1100     O1110   1.974       .  S
Fe1101     O1119   2.073       .  S
Fe1101     O1106   2.069       .  S
Fe1101     O1113   2.074       .  S
Fe1101     O1102   2.073       .  S
Fe1101     O1110   1.973       .  S
O1102      C1109   1.272       .  A
O1103      C1117   1.270       .  A
O1104      C1109   1.268       .  A
O1105      C1108   1.263       .  A
O1106      C1118   1.269       .  A
O1107      C1120   1.268       .  A
C1108      O1113   1.270       .  A
C1108      C1166   1.491       .  S
C1109      C1125   1.483       .  S
O1111      C1114   1.268       .  A
O1112      C1114   1.268       .  A
C1114      C1221   1.489       .  S
O1115      C1120   1.267       .  A
O1116      C1118   1.267       .  A
C1117      O1119   1.272       .  A
C1117      C1294   1.480       .  S
C1118      C1262   1.486       .  S
C1120      C1198   1.470       .  S
C1121      C1122   1.401       .  A
C1121      C1126   1.403       .  A
C1121      H1131   1.085       .  S
C1122      C1127   1.482       .  S
C1122      C1123   1.411       .  A
C1123      C1124   1.402       .  A
C1123      C1128   1.507       .  S
C1124      C1125   1.406       .  A
C1124      H1129   1.084       .  S
C1125      C1126   1.420       .  A
C1126      C1130   1.509       .  S
C1127      C1132   1.408       .  A
C1127      C1136   1.400       .  A
C1128      H1144   1.109       .  S
C1128      H1145   1.110       .  S
C1128      H1146   1.111       .  S
C1130      H1141   1.111       .  S
C1130      H1142   1.110       .  S
C1130      H1143   1.106       .  S
C1132      C1133   1.402       .  A
C1132      C1137   1.507       .  S
C1133      C1134   1.410       .  A
C1133      H1138   1.082       .  S
C1134      C1135   1.423       .  A
C1135      C1136   1.404       .  A
C1135      C1139   1.508       .  S
C1136      H1140   1.084       .  S
C1137      H1147   1.111       .  S
C1137      H1148   1.109       .  S
C1137      H1149   1.110       .  S
C1139      H1150   1.111       .  S
C1139      H1151   1.110       .  S
C1139      H1152   1.109       .  S
C1153      C1154   1.399       .  A
C1153      C1158   1.402       .  A
C1153      H1163   1.085       .  S
C1154      C1159   1.477       .  S
C1154      C1155   1.409       .  A
C1155      C1156   1.402       .  A
C1155      C1160   1.507       .  S
C1156      C1157   1.405       .  A
C1156      H1161   1.084       .  S
C1157      C1158   1.419       .  A
C1158      C1162   1.508       .  S
C1159      C1164   1.408       .  A
C1159      C1168   1.397       .  A
C1160      H1176   1.110       .  S
C1160      H1177   1.110       .  S
C1160      H1178   1.111       .  S
C1162      H1173   1.110       .  S
C1162      H1174   1.111       .  S
C1162      H1175   1.105       .  S
C1164      C1165   1.403       .  A
C1164      C1169   1.506       .  S
C1165      C1166   1.408       .  A
C1165      H1170   1.084       .  S
C1166      C1167   1.425       .  A
C1167      C1168   1.403       .  A
C1167      C1171   1.509       .  S
C1168      H1172   1.085       .  S
C1169      H1179   1.111       .  S
C1169      H1180   1.110       .  S
C1169      H1181   1.110       .  S
C1171      H1182   1.111       .  S
C1171      H1183   1.108       .  S
C1171      H1184   1.109       .  S
C1185      C1186   1.400       .  A
C1185      C1190   1.404       .  A
C1186      C1187   1.408       .  A
C1187      C1188   1.401       .  A
C1187      C1192   1.507       .  S
C1188      C1189   1.407       .  A
C1188      H1193   1.084       .  S
C1189      C1190   1.419       .  A
C1190      C1194   1.508       .  S
C1191      C1196   1.410   1_565  A
C1191      C1200   1.401       .  A
C1192      H1208   1.110       .  S
C1192      H1209   1.110       .  S
C1192      H1210   1.111       .  S
C1194      H1205   1.110       .  S
C1194      H1206   1.111       .  S
C1194      H1207   1.106       .  S
C1196      C1197   1.402   1_545  A
C1197      C1198   1.403       .  A
C1197      H1202   1.085       .  S
C1198      C1199   1.414       .  A
C1199      C1200   1.402       .  A
C1199      C1203   1.507       .  S
C1200      H1204   1.085       .  S
C1201      H1211   1.111       .  S
C1201      H1212   1.110       .  S
C1201      H1213   1.110       .  S
C1203      H1214   1.110       .  S
C1203      H1215   1.108       .  S
C1203      H1216   1.110       .  S
C1217      C1218   1.399       .  A
C1217      C1222   1.404       .  A
C1217      H1227   1.084   1_565  S
C1218      C1219   1.406       .  A
C1219      C1220   1.401       .  A
C1219      C1224   1.507       .  S
C1220      C1221   1.410       .  A
C1220      H1225   1.084       .  S
C1221      C1222   1.421       .  A
C1222      C1226   1.508       .  S
C1223      C1228   1.408       .  A
C1223      C1232   1.399       .  A
C1224      H1241   1.110       .  S
C1224      H1242   1.111       .  S
C1226      H1237   1.111   1_565  S
C1226      H1238   1.110       .  S
C1226      H1239   1.110       .  S
C1228      C1229   1.403       .  A
C1229      C1230   1.407       .  A
C1229      H1234   1.084       .  S
C1230      C1231   1.418       .  A
C1231      C1232   1.401       .  A
C1231      C1235   1.508       .  S
C1232      H1236   1.085       .  S
C1233      H1243   1.111       .  S
C1233      H1244   1.110       .  S
C1233      H1245   1.110       .  S
C1235      H1246   1.111       .  S
C1235      H1247   1.104       .  S
C1235      H1248   1.110       .  S
C1249      C1250   1.400       .  A
C1249      C1254   1.403       .  A
C1249      H1259   1.085       .  S
C1250      C1255   1.482       .  S
C1250      C1251   1.411       .  A
C1251      C1252   1.406       .  A
C1251      C1256   1.506       .  S
C1252      C1253   1.404       .  A
C1252      H1257   1.084       .  S
C1253      C1254   1.417       .  A
C1254      C1258   1.509       .  S
C1255      C1260   1.410       .  A
C1255      C1264   1.399       .  A
C1256      H1272   1.110       .  S
C1256      H1273   1.110       .  S
C1256      H1274   1.111       .  S
C1258      H1269   1.111       .  S
C1258      H1270   1.110       .  S
C1258      H1271   1.107       .  S
C1260      C1261   1.405       .  A
C1260      C1265   1.506       .  S
C1261      C1262   1.406       .  A
C1261      H1266   1.084       .  S
C1262      C1263   1.420       .  A
C1263      C1264   1.405       .  A
C1263      C1267   1.509       .  S
C1264      H1268   1.084       .  S
C1265      H1275   1.111       .  S
C1265      H1276   1.110       .  S
C1265      H1277   1.110       .  S
C1267      H1278   1.109       .  S
C1267      H1279   1.111       .  S
C1267      H1280   1.111       .  S
C1281      C1282   1.402       .  A
C1281      C1286   1.406       .  A
C1281      H1291   1.084       .  S
C1282      C1287   1.483       .  S
C1282      C1283   1.409       .  A
C1283      C1284   1.403       .  A
C1283      C1288   1.506       .  S
C1284      C1285   1.406       .  A
C1284      H1289   1.084       .  S
C1285      C1286   1.419       .  A
C1286      C1290   1.508       .  S
C1287      C1292   1.409       .  A
C1287      C1296   1.403       .  A
C1288      H1304   1.110       .  S
C1288      H1305   1.110       .  S
C1288      H1306   1.111       .  S
C1290      H1301   1.111       .  S
C1290      H1302   1.110       .  S
C1290      H1303   1.106       .  S
C1292      C1293   1.402       .  A
C1292      C1297   1.507       .  S
C1293      C1294   1.405       .  A
C1293      H1298   1.084       .  S
C1294      C1295   1.418       .  A
C1295      C1296   1.407       .  A
C1295      C1299   1.508       .  S
C1296      H1300   1.084       .  S
C1297      H1307   1.111       .  S
C1297      H1308   1.110       .  S
C1297      H1309   1.110       .  S
C1299      H1310   1.110       .  S
C1299      H1311   1.107       .  S
C1299      H1312   1.111       .  S
C1313      C1314   1.401       .  A
C1313      C1318   1.404       .  A
C1313      H1323   1.085       .  S
C1314      C1319   1.482       .  S
C1314      C1315   1.411       .  A
C1315      C1316   1.404       .  A
C1315      C1320   1.507       .  S
C1316      C1317   1.405       .  A
C1316      H1321   1.084       .  S
C1317      C1318   1.418       .  A
C1318      C1322   1.508       .  S
C1319      C1324   1.408       .  A
C1319      C1328   1.401       .  A
C1320      H1336   1.110       .  S
C1320      H1337   1.110       .  S
C1320      H1338   1.111       .  S
C1322      H1333   1.111       .  S
C1322      H1334   1.110       .  S
C1322      H1335   1.106       .  S
C1324      C1325   1.402       .  A
C1324      C1329   1.507       .  S
C1325      C1326   1.408       .  A
C1325      H1330   1.084       .  S
C1326      C1327   1.420       .  A
C1327      C1328   1.406       .  A
C1327      C1331   1.508       .  S
C1328      H1332   1.084       .  S
C1329      H1339   1.111       .  S
C1329      H1340   1.110       .  S
C1329      H1341   1.110       .  S
C1331      H1342   1.111       .  S
C1331      H1343   1.110       .  S
C1331      H1344   1.110       .  S
C1345      C1346   1.401       .  A
C1345      C1350   1.405       .  A
C1345      H1355   1.085       .  S
C1346      C1351   1.481       .  S
C1346      C1347   1.408       .  A
C1347      C1348   1.402       .  A
C1347      C1352   1.507       .  S
C1348      C1349   1.408       .  A
C1348      H1353   1.084       .  S
C1349      C1350   1.420       .  A
C1350      C1354   1.508       .  S
C1351      C1356   1.411       .  A
C1351      C1360   1.400       .  A
C1352      H1368   1.110       .  S
C1352      H1369   1.110       .  S
C1352      H1370   1.111       .  S
C1354      H1365   1.111       .  S
C1354      H1366   1.110       .  S
C1354      H1367   1.106       .  S
C1356      C1357   1.405       .  A
C1356      C1361   1.506       .  S
C1357      C1358   1.405       .  A
C1357      H1362   1.084       .  S
C1358      C1359   1.417       .  A
C1359      C1360   1.401       .  A
C1359      C1363   1.510       .  S
C1360      H1364   1.085       .  S
C1361      H1371   1.111       .  S
C1361      H1372   1.110       .  S
C1361      H1373   1.110       .  S
C1363      H1374   1.111       .  S
C1363      H1375   1.106       .  S
C1363      H1376   1.110       .  S
C1377      C1378   1.399       .  A
C1377      C1382   1.404       .  A
C1377      H1387   1.084       .  S
C1378      C1383   1.477       .  S
C1378      C1379   1.407       .  A
C1379      C1380   1.402       .  A
C1379      C1384   1.507       .  S
C1380      C1381   1.409       .  A
C1380      H1385   1.084       .  S
C1381      C1382   1.420       .  A
C1382      C1386   1.508       .  S
C1383      C1388   1.410       .  A
C1384      H1401   1.110       .  S
C1384      H1402   1.111       .  S
C1386      H1397   1.110       .  S
C1386      H1398   1.111       .  S
C1386      H1399   1.110       .  S
C1388      C1393   1.507       .  S
C1389      C1390   1.404       .  A
C1389      H1394   1.084       .  S
C1390      C1391   1.418       .  A
C1391      C1392   1.402       .  A
C1391      C1395   1.509       .  S
C1392      H1396   1.085       .  S
C1393      H1403   1.111       .  S
C1393      H1404   1.110       .  S
C1393      H1405   1.110       .  S
C1395      H1406   1.110       .  S
C1395      H1407   1.107       .  S
C1395      H1408   1.111       .  S
C1409      C1410   1.400       .  A
C1409      C1414   1.403       .  A
C1410      C1415   1.478       .  S
C1410      C1411   1.408       .  A
C1411      C1412   1.401       .  A
C1411      C1416   1.507       .  S
C1412      C1413   1.407       .  A
C1412      H1417   1.084       .  S
C1413      C1414   1.420       .  A
C1414      C1418   1.509       .  S
C1416      H1432   1.110       .  S
C1416      H1433   1.110       .  S
C1416      H1434   1.111       .  S
C1418      H1429   1.111       .  S
C1418      H1430   1.110       .  S
C1418      H1431   1.105       .  S
C1420      C1421   1.403       .  A
C1420      C1425   1.506       .  S
C1421      C1422   1.403       .  A
C1421      H1426   1.083       .  S
C1422      C1423   1.417       .  A
C1423      C1424   1.401   1_565  A
C1423      C1427   1.509   1_565  S
C1424      H1428   1.085       .  S
C1425      H1435   1.111       .  S
C1425      H1436   1.110       .  S
C1427      H1438   1.111       .  S
C1427      H1439   1.106   1_545  S
C1427      H1440   1.110       .  S
C1441      C1442   1.398       .  A
C1441      C1446   1.405       .  A
C1441      H1451   1.084       .  S
C1442      C1443   1.409       .  A
C1443      C1444   1.405       .  A
C1443      C1448   1.506       .  S
C1444      C1445   1.411       .  A
C1444      H1449   1.083       .  S
C1445      C1446   1.427       .  A
C1446      C1450   1.508       .  S
C1447      C1452   1.412       .  A
C1447      C1456   1.400       .  A
C1448      H1465   1.110       .  S
C1448      H1466   1.111       .  S
C1450      H1461   1.110       .  S
C1450      H1462   1.111       .  S
C1450      H1463   1.108       .  S
C1452      C1453   1.406       .  A
C1453      C1454   1.404       .  A
C1453      H1458   1.084       .  S
C1454      C1455   1.416       .  A
C1455      C1456   1.402       .  A
C1455      C1459   1.509       .  S
C1456      H1460   1.085       .  S
C1457      H1467   1.111       .  S
C1457      H1468   1.110       .  S
C1457      H1469   1.110       .  S
C1459      H1470   1.111       .  S
C1459      H1471   1.106       .  S
C1459      H1472   1.110       .  S
C1473      C1474   1.401       .  A
C1473      C1478   1.404       .  A
C1473      H1483   1.085       .  S
C1474      C1479   1.480       .  S
C1474      C1475   1.409       .  A
C1475      C1476   1.402       .  A
C1475      C1480   1.506       .  S
C1476      C1477   1.405       .  A
C1476      H1481   1.084       .  S
C1477      C1478   1.418       .  A
C1478      C1482   1.509       .  S
C1479      C1484   1.408       .  A
C1479      C1488   1.399       .  A
C1480      H1496   1.110       .  S
C1480      H1497   1.110       .  S
C1480      H1498   1.111       .  S
C1482      H1493   1.110       .  S
C1482      H1494   1.111       .  S
C1482      H1495   1.107       .  S
C1484      C1485   1.403       .  A
C1484      C1489   1.506       .  S
C1485      C1486   1.408       .  A
C1485      H1490   1.084       .  S
C1486      C1487   1.421       .  A
C1487      C1488   1.404       .  A
C1487      C1491   1.508       .  S
C1488      H1492   1.084       .  S
C1489      H1499   1.111       .  S
C1489      H1500   1.110       .  S
C1489      H1501   1.110       .  S
C1491      H1502   1.111       .  S
C1491      H1503   1.111       .  S
C1491      H1504   1.110       .  S
C1505      C1506   1.400       .  A
C1505      C1510   1.401       .  A
C1505      H1515   1.085       .  S
C1506      C1511   1.478       .  S
C1506      C1507   1.410       .  A
C1507      C1508   1.404       .  A
C1507      C1512   1.506       .  S
C1508      C1509   1.404       .  A
C1508      H1513   1.084       .  S
C1509      C1510   1.417       .  A
C1510      C1514   1.509       .  S
C1511      C1516   1.409       .  A
C1511      C1520   1.398       .  A
C1512      H1528   1.110       .  S
C1512      H1529   1.110       .  S
C1512      H1530   1.111       .  S
C1514      H1525   1.111       .  S
C1514      H1526   1.110       .  S
C1514      H1527   1.106       .  S
C1516      C1517   1.404       .  A
C1516      C1521   1.506       .  S
C1517      C1518   1.406       .  A
C1517      H1522   1.084       .  S
C1518      C1519   1.421       .  A
C1519      C1520   1.403       .  A
C1519      C1523   1.509       .  S
C1520      H1524   1.084       .  S
C1521      H1531   1.111       .  S
C1521      H1532   1.110       .  S
C1521      H1533   1.110       .  S
C1523      H1534   1.111       .  S
C1523      H1535   1.111       .  S
C1523      H1536   1.110       .  S
C1537      C1538   1.402       .  A
C1537      C1542   1.404       .  A
C1537      H1547   1.084       .  S
C1538      C1543   1.477       .  S
C1538      C1539   1.409       .  A
C1539      C1540   1.400       .  A
C1539      C1544   1.507       .  S
C1540      C1541   1.403       .  A
C1540      H1545   1.085       .  S
C1541      C1542   1.415       .  A
C1542      C1546   1.508       .  S
C1543      C1548   1.411       .  A
C1543      C1552   1.398       .  A
C1544      H1560   1.110       .  S
C1544      H1561   1.109       .  S
C1544      H1562   1.111       .  S
C1546      H1557   1.111       .  S
C1546      H1558   1.110       .  S
C1546      H1559   1.107       .  S
C1548      C1549   1.405       .  A
C1548      C1553   1.506       .  S
C1549      C1550   1.404       .  A
C1549      H1554   1.084       .  S
C1550      C1551   1.418       .  A
C1551      C1552   1.400       .  A
C1551      C1555   1.510       .  S
C1552      H1556   1.084       .  S
C1553      H1563   1.111       .  S
C1553      H1564   1.110       .  S
C1553      H1565   1.109       .  S
C1555      H1566   1.109       .  S
C1555      H1567   1.111       .  S
C1555      H1568   1.111       .  S
C1569      C1570   1.400       .  A
C1569      C1574   1.405       .  A
C1569      H1579   1.084   1_565  S
C1570      C1571   1.407       .  A
C1571      C1572   1.400       .  A
C1571      C1576   1.508       .  S
C1572      C1573   1.408       .  A
C1572      H1577   1.084       .  S
C1573      C1574   1.419       .  A
C1574      C1578   1.508       .  S
C1575      C1584   1.401       .  A
C1576      H1593   1.109       .  S
C1576      H1594   1.111       .  S
C1578      H1589   1.109       .  S
C1578      H1590   1.111       .  S
C1578      H1591   1.111       .  S
C1580      C1585   1.508   1_545  S
C1581      C1582   1.403       .  A
C1581      H1586   1.084       .  S
C1582      C1583   1.417       .  A
C1583      C1584   1.404       .  A
C1583      C1587   1.509       .  S
C1584      H1588   1.084       .  S
C1585      H1595   1.111       .  S
C1585      H1596   1.110       .  S
C1585      H1597   1.109       .  S
C1587      H1598   1.110       .  S
C1587      H1599   1.107       .  S
C1587      H1600   1.111       .  S
C1601      C1602   1.398       .  A
C1601      C1606   1.399       .  A
C1602      C1603   1.410       .  A
C1603      C1604   1.404       .  A
C1603      C1608   1.506       .  S
C1604      C1605   1.404       .  A
C1604      H1609   1.084       .  S
C1605      C1606   1.417       .  A
C1606      C1610   1.510       .  S
C1607      C1612   1.409       .  A
C1607      C1616   1.402       .  A
C1608      H1624   1.110       .  S
C1608      H1625   1.109       .  S
C1608      H1626   1.111       .  S
C1610      H1622   1.110       .  S
C1610      H1623   1.106       .  S
C1612      C1613   1.400       .  A
C1612      C1617   1.507       .  S
C1613      C1614   1.404       .  A
C1613      H1618   1.084       .  S
C1614      C1615   1.414       .  A
C1615      C1616   1.404       .  A
C1615      C1619   1.505       .  S
C1617      H1627   1.111       .  S
C1617      H1628   1.110       .  S
C1617      H1629   1.109       .  S
C1619      H1630   1.107       .  S
C1619      H1631   1.110       .  S
C1633      C1634   1.398       .  A
C1633      C1638   1.400       .  A
C1633      H1643   1.085       .  S
C1634      C1639   1.479       .  S
C1634      C1635   1.410       .  A
C1635      C1636   1.405       .  A
C1635      C1640   1.506       .  S
C1636      C1637   1.405       .  A
C1636      H1641   1.084       .  S
C1637      C1638   1.420       .  A
C1638      C1642   1.510       .  S
C1639      C1644   1.409       .  A
C1639      C1648   1.399       .  A
C1640      H1656   1.110       .  S
C1640      H1657   1.110       .  S
C1640      H1658   1.111       .  S
C1642      H1653   1.111       .  S
C1642      H1654   1.110       .  S
C1642      H1655   1.105       .  S
C1644      C1645   1.402       .  A
C1644      C1649   1.506       .  S
C1645      C1646   1.406       .  A
C1645      H1650   1.084       .  S
C1646      C1647   1.422       .  A
C1647      C1648   1.404       .  A
C1647      C1651   1.509       .  S
C1648      H1652   1.084       .  S
C1649      H1659   1.111       .  S
C1649      H1660   1.110       .  S
C1649      H1661   1.110       .  S
C1651      H1662   1.109       .  S
C1651      H1663   1.110       .  S
C1651      H1664   1.111       .  S
C1665      C1666   1.399       .  A
C1665      C1670   1.400       .  A
C1665      H1675   1.085       .  S
C1666      C1671   1.482       .  S
C1666      C1667   1.413       .  A
C1667      C1668   1.404       .  A
C1667      C1672   1.507       .  S
C1668      C1669   1.405       .  A
C1668      H1673   1.084       .  S
C1669      C1670   1.420       .  A
C1670      C1674   1.510       .  S
C1671      C1676   1.413       .  A
C1671      C1680   1.401       .  A
C1672      H1688   1.109       .  S
C1672      H1689   1.110       .  S
C1672      H1690   1.111       .  S
C1674      H1685   1.111       .  S
C1674      H1686   1.110       .  S
C1674      H1687   1.105       .  S
C1676      C1677   1.403       .  A
C1676      C1681   1.508       .  S
C1677      C1678   1.403       .  A
C1677      H1682   1.084       .  S
C1678      C1679   1.418       .  A
C1679      C1680   1.402       .  A
C1679      C1683   1.509       .  S
C1680      H1684   1.085       .  S
C1681      H1691   1.111       .  S
C1681      H1692   1.109       .  S
C1681      H1693   1.110       .  S
C1683      H1694   1.110       .  S
C1683      H1695   1.106       .  S
C1683      H1696   1.111       .  S
C1697      C1698   1.398       .  A
C1697      C1702   1.402       .  A
C1697      H1707   1.085   1_554  S
C1698      C3587   1.409       .  A
C1699      C3586   1.409   1_455  A
C1699      C1700   1.404       .  A
C1700      C3589   1.407   1_455  A
C1700      H1705   1.084       .  S
C1701      C3588   1.407       .  A
C1701      C1702   1.422       .  A
C1702      C1706   1.509       .  S
C1703      C1708   1.409       .  A
C1703      C3600   1.402       .  A
C1704      H1720   1.110       .  S
C1704      H1721   1.110       .  S
C1704      H1722   1.111       .  S
C1706      H1717   1.110       .  S
C1706      H1718   1.111       .  S
C1706      H1719   1.103       .  S
C1708      C1709   1.401       .  A
C1708      C1713   1.507   1_556  S
C1709      C1710   1.404       .  A
C1709      H1714   1.084       .  S
C1710      C3599   1.416       .  A
C1711      C3598   1.416   1_455  A
C1711      C1712   1.405       .  A
C1711      C1715   1.508       .  S
C1712      C3591   1.402   1_455  A
C1713      H1723   1.111       .  S
C1713      H1724   1.110       .  S
C1713      H1725   1.110       .  S
C1715      H1726   1.111   1_565  S
C1715      H1727   1.107       .  S
C1715      H1728   1.110       .  S
C1729      C3618   1.398       .  A
C1729      C1734   1.403       .  A
C1729      H1739   1.084   1_556  S
C1730      C1735   1.481   1_556  S
C1730      C3617   1.398   1_455  A
C1730      C1731   1.410       .  A
C1731      C1732   1.405       .  A
C1731      C1736   1.506       .  S
C1732      C3621   1.406       .  A
C1732      H1737   1.084       .  S
C1733      C3620   1.406       .  A
C1733      C1734   1.421       .  A
C1734      C1738   1.509       .  S
C1735      C1740   1.410       .  A
C1735      C3632   1.399   1_455  A
C1736      H1752   1.110       .  S
C1736      H1753   1.110       .  S
C1736      H1754   1.111       .  S
C1738      H1749   1.111       .  S
C1738      H1750   1.109       .  S
C1738      H1751   1.110       .  S
C1740      C1741   1.406       .  A
C1740      C1745   1.506       .  S
C1741      C3630   1.405       .  A
C1741      H1746   1.084       .  S
C1742      C3629   1.405       .  A
C1742      C1743   1.417       .  A
C1743      C1744   1.403       .  A
C1743      C1747   1.506       .  S
C1744      C3623   1.399       .  A
C1744      H1748   1.084   1_554  S
C1745      H1755   1.111       .  S
C1745      H1756   1.110       .  S
C1745      H1757   1.110       .  S
C1747      H1758   1.109       .  S
C1747      H1759   1.110       .  S
C1747      H1760   1.111       .  S
C1761      C1762   1.395       .  A
C1761      C1766   1.400       .  A
C1761      H1771   1.084       .  S
C1762      C1767   1.474       .  S
C1762      C1763   1.408       .  A
C1763      C1764   1.403       .  A
C1763      C1768   1.506       .  S
C1764      C1765   1.408       .  A
C1764      H1769   1.084       .  S
C1765      C1766   1.425       .  A
C1766      C1770   1.510       .  S
C1767      C1772   1.409       .  A
C1767      C1776   1.400       .  A
C1768      H1784   1.110       .  S
C1768      H1785   1.110       .  S
C1768      H1786   1.111       .  S
C1770      H1781   1.110       .  S
C1770      H1782   1.111       .  S
C1770      H1783   1.111       .  S
C1772      C1773   1.401       .  A
C1772      C1777   1.506       .  S
C1773      C1774   1.403       .  A
C1773      H1778   1.084       .  S
C1774      C1775   1.416       .  A
C1775      C1776   1.400       .  A
C1775      C1779   1.510       .  S
C1776      H1780   1.085       .  S
C1777      H1787   1.111       .  S
C1777      H1788   1.110       .  S
C1777      H1789   1.110       .  S
C1779      H1790   1.110       .  S
C1779      H1791   1.107       .  S
C1779      H1792   1.111       .  S
C1793      C1794   1.397       .  A
C1793      C1798   1.401       .  A
C1793      H1803   1.085       .  S
C1794      C1799   1.477       .  S
C1794      C1795   1.409       .  A
C1795      C1796   1.403       .  A
C1795      C1800   1.507       .  S
C1796      C1797   1.406       .  A
C1796      H1801   1.084       .  S
C1797      C1798   1.422       .  A
C1798      C1802   1.508       .  S
C1799      C1804   1.410       .  A
C1799      C1808   1.399       .  A
C1800      H1816   1.110       .  S
C1800      H1817   1.109       .  S
C1800      H1818   1.111       .  S
C1802      H1813   1.110       .  S
C1802      H1814   1.111       .  S
C1802      H1815   1.105       .  S
C1804      C1805   1.402       .  A
C1804      C1809   1.507       .  S
C1805      C1806   1.405       .  A
C1805      H1810   1.084       .  S
C1806      C1807   1.419       .  A
C1807      C1808   1.402       .  A
C1807      C1811   1.509       .  S
C1808      H1812   1.085       .  S
C1809      H1819   1.111       .  S
C1809      H1820   1.110       .  S
C1809      H1821   1.109       .  S
C1811      H1822   1.111       .  S
C1811      H1823   1.107       .  S
C1811      H1824   1.110       .  S
C1825      C1826   1.401       .  A
C1825      C1830   1.402       .  A
C1825      H1835   1.084       .  S
C1827      C1832   1.506       .  S
C1828      C1829   1.402       .  A
C1828      H1833   1.085       .  S
C1829      C1830   1.414       .  A
C1830      C1834   1.507       .  S
C1831      C1836   1.407       .  A
C1831      C1840   1.400       .  A
C1832      H1848   1.110       .  S
C1832      H1849   1.110       .  S
C1832      H1850   1.111       .  S
C1834      H1845   1.110       .  S
C1834      H1846   1.110       .  S
C1834      H1847   1.108       .  S
C1836      C1837   1.400       .  A
C1836      C1841   1.507       .  S
C1837      C1838   1.409       .  A
C1837      H1842   1.084       .  S
C1838      C1839   1.421       .  A
C1839      C1840   1.406       .  A
C1839      C1843   1.508       .  S
C1840      H1844   1.084   1_565  S
C1841      H1851   1.111       .  S
C1841      H1853   1.110       .  S
C1843      H1854   1.111       .  S
C1843      H1855   1.111       .  S
C1843      H1856   1.109       .  S
C1857      C1858   1.397       .  A
C1857      C1862   1.404       .  A
C1857      H1867   1.084   1_565  S
C1858      C1859   1.408       .  A
C1859      C1860   1.402       .  A
C1860      C1861   1.408       .  A
C1860      H1865   1.084       .  S
C1861      C1862   1.423       .  A
C1862      C1866   1.509       .  S
C1863      C1872   1.399       .  A
C1864      H1880   1.110       .  S
C1864      H1881   1.109       .  S
C1864      H1882   1.111       .  S
C1866      H1877   1.109       .  S
C1866      H1878   1.111       .  S
C1866      H1879   1.111       .  S
C1868      C1873   1.507   1_545  S
C1869      C1870   1.405       .  A
C1869      H1874   1.084       .  S
C1870      C1871   1.419       .  A
C1871      C1872   1.402       .  A
C1871      C1875   1.508       .  S
C1872      H1876   1.085       .  S
C1873      H1883   1.111       .  S
C1873      H1884   1.110       .  S
C1873      H1885   1.109       .  S
C1875      H1886   1.111       .  S
C1875      H1887   1.106       .  S
C1875      H1888   1.110       .  S
Fe1889     O1895   2.049       .  S
Fe1889     O1894   2.045       .  S
Fe1890     O1893   2.062       .  S
Fe1890     O1897   2.068       .  S
Fe1890     O1901   2.070       .  S
Fe1890     O1906   2.056       .  S
Fe1890     O1900   1.979       .  S
Fe1891     O1909   2.067       .  S
Fe1891     O1896   2.074       .  S
Fe1891     O1903   2.074       .  S
Fe1891     O1892   2.072       .  S
O1892      C1899   1.271       .  A
O1893      C1907   1.269       .  A
O1894      C1899   1.264       .  A
O1895      C1898   1.264       .  A
O1897      C1910   1.267       .  A
C1898      O1903   1.271       .  A
C1898      C2805   1.489       .  S
C1899      C2709   1.488       .  S
O1901      C1904   1.270       .  A
O1902      C1904   1.266       .  A
C1904      C2750   1.478       .  S
O1905      C1910   1.266       .  A
O1906      C1908   1.266   1_655  A
C1907      C2654   1.475       .  S
C1908      C2677   1.486       .  S
C1910      C2782   1.488       .  S
Fe1911     O1927   2.047       .  S
Fe1911     O1917   2.067       .  S
Fe1911     O1924   2.065       .  S
Fe1911     O1916   2.053       .  S
Fe1911     O1922   1.965       .  S
Fe1912     O1915   2.068       .  S
Fe1912     O1919   2.074       .  S
Fe1912     O1923   2.065       .  S
Fe1912     O1928   2.065       .  S
Fe1912     O1922   1.967       .  S
Fe1913     O1931   2.065       .  S
Fe1913     O1918   2.062       .  S
Fe1913     O1925   2.058       .  S
Fe1913     O1914   2.074       .  S
Fe1913     O1922   1.968       .  S
O1914      C1921   1.269       .  A
O1915      C1929   1.271       .  A
O1916      C1921   1.266       .  A
O1917      C1920   1.269       .  A
O1918      C1930   1.269       .  A
O1919      C1932   1.270       .  A
C1920      O1925   1.268       .  A
C1920      C2814   1.477       .  S
C1921      C2773   1.467       .  S
O1923      C1926   1.270       .  A
O1924      C1926   1.268       .  A
C1926      C2741   1.483       .  S
O1927      C1932   1.265       .  A
O1928      C1930   1.268       .  A
C1929      O1931   1.269       .  A
C1929      C2581   1.477       .  S
C1930      C2613   1.477       .  S
C1932      C2718   1.469       .  S
Fe1933     O1949   2.055       .  S
Fe1933     O1939   2.051       .  S
Fe1933     O1946   2.061       .  S
Fe1933     O1938   2.051       .  S
Fe1933     O1944   1.964       .  S
Fe1934     O1937   2.061       .  S
Fe1934     O1941   2.075       .  S
Fe1934     O1945   2.067       .  S
Fe1934     O1950   2.066       .  S
Fe1934     O1944   1.964       .  S
Fe1935     O1953   2.075       .  S
Fe1935     O1940   2.071       .  S
Fe1935     O1947   2.071       .  S
Fe1935     O1936   2.081       .  S
Fe1935     O1944   1.968       .  S
O1936      C1943   1.273       .  A
O1937      C1951   1.270       .  A
O1938      C1943   1.270       .  A
O1939      C1942   1.264       .  A
O1940      C1952   1.271       .  A
O1941      C1954   1.271       .  A
C1942      O1947   1.268       .  A
C1942      C2494   1.476       .  S
C1943      C2517   1.486       .  S
O1945      C1948   1.269       .  A
O1946      C1948   1.267       .  A
C1948      C2558   1.475       .  S
O1949      C1954   1.267       .  A
O1950      C1952   1.267       .  A
C1951      O1953   1.273       .  A
C1951      C2430   1.488       .  S
C1952      C2389   1.499       .  S
C1954      C2453   1.472       .  S
Fe1955     O1968   2.063       .  S
Fe1955     O1960   2.050       .  S
Fe1955     O1966   1.962       .  S
Fe1956     O1967   2.059       .  S
Fe1956     O1972   2.068       .  S
Fe1956     O1966   1.963       .  S
Fe1957     O1962   2.060       .  S
Fe1957     O1958   2.086       .  S
Fe1957     O1966   1.963       .  S
O1958      C1965   1.274       .  A
O1959      C1973   1.268       .  A
O1960      C1965   1.267       .  A
O1961      C1964   1.266       .  A
O1962      C1974   1.270       .  A
O1963      C1976   1.271       .  A
C1964      O1969   1.268       .  A
C1964      C2485   1.471       .  S
C1965      C2462   1.485       .  S
O1967      C1970   1.267       .  A
O1968      C1970   1.268       .  A
C1970      C2549   1.472       .  S
O1971      C1976   1.267       .  A
O1972      C1974   1.269       .  A
C1973      O1975   1.272       .  A
C1973      C2622   1.475       .  S
C1974      C2590   1.486       .  S
C1976      C2526   1.472       .  S
Fe1977     O1993   2.071       .  S
Fe1977     O1983   2.054       .  S
Fe1977     O1990   2.057       .  S
Fe1977     O1982   2.070       .  S
Fe1977     O1988   1.958       .  S
Fe1978     O1981   2.077       .  S
Fe1978     O1985   2.060       .  S
Fe1978     O1989   2.078       .  S
Fe1978     O1994   2.059       .  S
Fe1978     O1988   1.961       .  S
Fe1979     O1997   2.062       .  S
Fe1979     O1984   2.076       .  S
Fe1979     O1991   2.077       .  S
Fe1979     O1980   2.063       .  S
Fe1979     O1988   1.961       .  S
O1980      C1987   1.268       .  A
O1981      C1995   1.271       .  A
O1982      C1987   1.271       .  A
O1983      C1986   1.268       .  A
O1984      C1996   1.272       .  A
O1985      C1998   1.268       .  A
C1986      O1991   1.271       .  A
C1986      C2357   1.482       .  S
C1987      C2270   1.489       .  S
O1989      C1992   1.271       .  A
O1990      C1992   1.267       .  A
C1992      C2302   1.475       .  S
O1993      C1998   1.271       .  A
O1994      C1996   1.269       .  A
C1995      O1997   1.268       .  A
C1995      C2398   1.475       .  S
C1996      C2421   1.477       .  S
C1998      C2325   1.487       .  S
Fe1999     O2012   2.055   1_455  S
Fe1999     O2004   2.060   1_455  S
Fe1999     O2010   1.979   1_455  S
Fe2000     O2011   2.074       .  S
Fe2000     O2016   2.067       .  S
Fe2000     O2010   1.982       .  S
Fe2001     O2006   2.066       .  S
Fe2001     O2002   2.063       .  S
Fe2001     O2010   1.982       .  S
O2002      C2009   1.269       .  A
O2003      C2017   1.270       .  A
O2004      C2009   1.268       .  A
O2005      C2008   1.266       .  A
O2006      C2018   1.267       .  A
O2007      C2020   1.269       .  A
C2008      O2013   1.269       .  A
C2008      C2366   1.472       .  S
C2009      C2334   1.474       .  S
O2011      C2014   1.270       .  A
O2012      C2014   1.267       .  A
C2014      C2293   1.486       .  S
O2015      C2020   1.268       .  A
O2016      C2018   1.269       .  A
C2017      O2019   1.271       .  A
C2017      C2197   1.476       .  S
C2018      C2229   1.482       .  S
C2020      C2261   1.481       .  S
Fe2021     O2027   2.067       .  S
Fe2021     O2026   2.053       .  S
Fe2021     O2032   1.968       .  S
Fe2022     O2025   2.064       .  S
Fe2022     O2029   2.075       .  S
Fe2022     O2033   2.067       .  S
Fe2022     O2038   2.076       .  S
Fe2023     O2041   2.076       .  S
Fe2023     O2028   2.060       .  S
Fe2023     O2035   2.061       .  S
Fe2023     O2024   2.076       .  S
Fe2023     O2032   1.969       .  S
O2024      C2031   1.270       .  A
O2026      C2031   1.267       .  A
O2027      C2030   1.269       .  A
O2028      C2040   1.268       .  A
O2029      C2042   1.269       .  A
C2030      O2035   1.269       .  A
C2030      C2101   1.479       .  S
C2031      C2133   1.482       .  S
O2033      C2036   1.270       .  A
O2034      C2036   1.268       .  A
C2036      C2174   1.476       .  S
O2037      C2042   1.268       .  A
C2039      O2041   1.271   1_455  A
C2039      C2686   1.481       .  S
C2040      C2645   1.483       .  S
C2042      C2078   1.493       .  S
Fe2043     O2059   2.059       .  S
Fe2043     O2049   2.050       .  S
Fe2043     O2056   2.059       .  S
Fe2043     O2048   2.055       .  S
Fe2043     O2054   1.972       .  S
Fe2044     O2047   2.066       .  S
Fe2044     O2051   2.069       .  S
Fe2044     O2055   2.064       .  S
Fe2044     O2060   2.063       .  S
Fe2044     O2054   1.974       .  S
Fe2045     O2063   2.073       .  S
Fe2045     O2050   2.069       .  S
Fe2045     O2057   2.074       .  S
Fe2045     O2046   2.073       .  S
Fe2045     O2054   1.973       .  S
O2046      C2053   1.272       .  A
O2047      C2061   1.270       .  A
O2048      C2053   1.268       .  A
O2049      C2052   1.263       .  A
O2050      C2062   1.269       .  A
O2051      C2064   1.268       .  A
C2052      O2057   1.270       .  A
C2052      C2110   1.490       .  S
C2053      C2069   1.483       .  S
O2055      C2058   1.268       .  A
O2056      C2058   1.268       .  A
C2058      C2165   1.489       .  S
O2059      C2064   1.267       .  A
O2060      C2062   1.267       .  A
C2061      O2063   1.272       .  A
C2061      C2238   1.480       .  S
C2062      C2206   1.486       .  S
C2064      C2142   1.470       .  S
C2065      C2066   1.401       .  A
C2065      C2070   1.403       .  A
C2065      H2075   1.085       .  S
C2066      C2071   1.482       .  S
C2066      C2067   1.411       .  A
C2067      C2068   1.402       .  A
C2067      C2072   1.507       .  S
C2068      C2069   1.406       .  A
C2068      H2073   1.084       .  S
C2069      C2070   1.420       .  A
C2070      C2074   1.509       .  S
C2071      C2076   1.408       .  A
C2071      C2080   1.400       .  A
C2072      H2088   1.109       .  S
C2072      H2089   1.110       .  S
C2072      H2090   1.111       .  S
C2074      H2085   1.111       .  S
C2074      H2086   1.110       .  S
C2074      H2087   1.107       .  S
C2076      C2077   1.402       .  A
C2076      C2081   1.507       .  S
C2077      C2078   1.410       .  A
C2077      H2082   1.082       .  S
C2078      C2079   1.423       .  A
C2079      C2080   1.404       .  A
C2079      C2083   1.508       .  S
C2080      H2084   1.084       .  S
C2081      H2091   1.111       .  S
C2081      H2092   1.109       .  S
C2081      H2093   1.110       .  S
C2083      H2094   1.111       .  S
C2083      H2095   1.110       .  S
C2083      H2096   1.109       .  S
C2097      C2098   1.399       .  A
C2097      C2102   1.402       .  A
C2097      H2107   1.085       .  S
C2098      C2103   1.477       .  S
C2098      C2099   1.409       .  A
C2099      C2100   1.402       .  A
C2099      C2104   1.507       .  S
C2100      C2101   1.405       .  A
C2100      H2105   1.084       .  S
C2101      C2102   1.419       .  A
C2102      C2106   1.508       .  S
C2103      C2108   1.408       .  A
C2103      C2112   1.397       .  A
C2104      H2120   1.110       .  S
C2104      H2121   1.110       .  S
C2104      H2122   1.111       .  S
C2106      H2117   1.110       .  S
C2106      H2118   1.111       .  S
C2106      H2119   1.105       .  S
C2108      C2109   1.403       .  A
C2108      C2113   1.506       .  S
C2109      C2110   1.408       .  A
C2109      H2114   1.084       .  S
C2110      C2111   1.425       .  A
C2111      C2112   1.403       .  A
C2111      C2115   1.509       .  S
C2112      H2116   1.085       .  S
C2113      H2123   1.111       .  S
C2113      H2124   1.110       .  S
C2113      H2125   1.110       .  S
C2115      H2126   1.111       .  S
C2115      H2127   1.108       .  S
C2115      H2128   1.109       .  S
C2129      C2130   1.400       .  A
C2129      C2134   1.403       .  A
C2129      H3083   1.085   1_545  S
C2130      C3079   1.477   1_545  S
C2130      C2131   1.408       .  A
C2131      C2132   1.401       .  A
C2131      C2136   1.507       .  S
C2132      C2133   1.407       .  A
C2132      H2137   1.084       .  S
C2133      C2134   1.419       .  A
C2134      C2138   1.508       .  S
C2135      C3074   1.477       .  S
C2135      C2140   1.410       .  A
C2135      C2144   1.401       .  A
C2136      H2152   1.110       .  S
C2136      H2153   1.110       .  S
C2136      H2154   1.111       .  S
C2138      H2149   1.110       .  S
C2138      H2150   1.111       .  S
C2138      H2151   1.106       .  S
H2139      C3073   1.085       .  S
C2140      C2141   1.402       .  A
C2140      C3089   1.507       .  S
C2141      C2142   1.403       .  A
C2141      H2146   1.085       .  S
C2142      C2143   1.414       .  A
C2143      C2144   1.402       .  A
C2143      C2147   1.507       .  S
C2144      H2148   1.085       .  S
C2145      C3084   1.507       .  S
C2145      H2155   1.111       .  S
C2145      H2156   1.110       .  S
C2145      H2157   1.110       .  S
C2147      H2158   1.110       .  S
C2147      H2159   1.108       .  S
C2147      H2160   1.110       .  S
C2161      C2162   1.399       .  A
C2161      C2166   1.404       .  A
C2161      H2171   1.084       .  S
C2162      C3111   1.476       .  S
C2162      C2163   1.406       .  A
C2163      C2164   1.401       .  A
C2163      C2168   1.507       .  S
C2164      C2165   1.411       .  A
C2164      H2169   1.084       .  S
C2165      C2166   1.421       .  A
C2166      C2170   1.508       .  S
C2167      C3106   1.476   1_545  S
C2167      C2172   1.408       .  A
C2167      C2176   1.399       .  A
C2168      H3128   1.110       .  S
C2168      H2185   1.109       .  S
C2168      H2186   1.111       .  S
C2170      H2181   1.111       .  S
C2170      H2182   1.110       .  S
C2170      H2183   1.110       .  S
C2172      C2173   1.403       .  A
C2172      C3121   1.506   1_545  S
C2173      C2174   1.407       .  A
C2173      H2178   1.084       .  S
C2174      C2175   1.418       .  A
C2175      C2176   1.401       .  A
C2175      C2179   1.508       .  S
C2176      H2180   1.085       .  S
C2177      C3116   1.506       .  S
C2177      H2187   1.111       .  S
C2177      H2188   1.110       .  S
C2177      H2189   1.110       .  S
C2179      H2190   1.111       .  S
C2179      H2191   1.104       .  S
C2179      H2192   1.110       .  S
H2184      C3112   1.110       .  S
C2193      C2194   1.400       .  A
C2193      C2198   1.403       .  A
C2193      H2203   1.085       .  S
C2194      C2199   1.482       .  S
C2194      C2195   1.411       .  A
C2195      C2196   1.405       .  A
C2195      C2200   1.506       .  S
C2196      C2197   1.404       .  A
C2196      H2201   1.084       .  S
C2197      C2198   1.417       .  A
C2198      C2202   1.509       .  S
C2199      C2204   1.410       .  A
C2199      C2208   1.399       .  A
C2200      H2216   1.110       .  S
C2200      H2217   1.110       .  S
C2200      H2218   1.111       .  S
C2202      H2213   1.111       .  S
C2202      H2214   1.110       .  S
C2202      H2215   1.107       .  S
C2204      C2205   1.405       .  A
C2204      C2209   1.506       .  S
C2205      C2206   1.406       .  A
C2205      H2210   1.084       .  S
C2206      C2207   1.420       .  A
C2207      C2208   1.405       .  A
C2207      C2211   1.509       .  S
C2208      H2212   1.084       .  S
C2209      H2219   1.111       .  S
C2209      H2220   1.110       .  S
C2209      H2221   1.110       .  S
C2211      H2222   1.109       .  S
C2211      H2223   1.111       .  S
C2211      H2224   1.111       .  S
C2225      C2226   1.402       .  A
C2225      C2230   1.406       .  A
C2225      H2235   1.084       .  S
C2226      C2231   1.483       .  S
C2226      C2227   1.409       .  A
C2227      C2228   1.403       .  A
C2227      C2232   1.506       .  S
C2228      C2229   1.405       .  A
C2228      H2233   1.084       .  S
C2229      C2230   1.419       .  A
C2230      C2234   1.508       .  S
C2231      C2236   1.409       .  A
C2231      C2240   1.403       .  A
C2232      H2248   1.110       .  S
C2232      H2249   1.110       .  S
C2232      H2250   1.111       .  S
C2234      H2245   1.111       .  S
C2234      H2246   1.110       .  S
C2234      H2247   1.106       .  S
C2236      C2237   1.402       .  A
C2236      C2241   1.507       .  S
C2237      C2238   1.405       .  A
C2237      H2242   1.084       .  S
C2238      C2239   1.418       .  A
C2239      C2240   1.407       .  A
C2239      C2243   1.508       .  S
C2240      H2244   1.084       .  S
C2241      H2251   1.111       .  S
C2241      H2252   1.110       .  S
C2241      H2253   1.110       .  S
C2243      H2254   1.110       .  S
C2243      H2255   1.107       .  S
C2243      H2256   1.111       .  S
C2257      C2258   1.401       .  A
C2257      C2262   1.404       .  A
C2257      H2267   1.085       .  S
C2258      C2263   1.483       .  S
C2258      C2259   1.411       .  A
C2259      C2260   1.404       .  A
C2259      C2264   1.507       .  S
C2260      C2261   1.405       .  A
C2260      H2265   1.084       .  S
C2261      C2262   1.418       .  A
C2262      C2266   1.508       .  S
C2263      C2268   1.409       .  A
C2263      C2272   1.401       .  A
C2264      H2280   1.110       .  S
C2264      H2281   1.110       .  S
C2264      H2282   1.111       .  S
C2266      H2277   1.111       .  S
C2266      H2278   1.110       .  S
C2266      H2279   1.106       .  S
C2268      C2269   1.402       .  A
C2268      C2273   1.507       .  S
C2269      C2270   1.408       .  A
C2269      H2274   1.084       .  S
C2270      C2271   1.420       .  A
C2271      C2272   1.406       .  A
C2271      C2275   1.508       .  S
C2272      H2276   1.084       .  S
C2273      H2283   1.111       .  S
C2273      H2284   1.110       .  S
C2273      H2285   1.110       .  S
C2275      H2286   1.111       .  S
C2275      H2287   1.110       .  S
C2275      H2288   1.110       .  S
C2289      C2290   1.401       .  A
C2289      C2294   1.405       .  A
C2289      H2299   1.085       .  S
C2290      C2295   1.481       .  S
C2290      C2291   1.408       .  A
C2291      C2292   1.402       .  A
C2291      C2296   1.507       .  S
C2292      C2293   1.408       .  A
C2292      H2297   1.084       .  S
C2293      C2294   1.420       .  A
C2294      C2298   1.508       .  S
C2295      C2300   1.411       .  A
C2295      C2304   1.400       .  A
C2296      H2312   1.110       .  S
C2296      H2313   1.110       .  S
C2296      H2314   1.111       .  S
C2298      H2309   1.111       .  S
C2298      H2310   1.110       .  S
C2298      H2311   1.106       .  S
C2300      C2301   1.405       .  A
C2300      C2305   1.506       .  S
C2301      C2302   1.405       .  A
C2301      H2306   1.084       .  S
C2302      C2303   1.417       .  A
C2303      C2304   1.401       .  A
C2303      C2307   1.510       .  S
C2304      H2308   1.085       .  S
C2305      H2315   1.111       .  S
C2305      H2316   1.110       .  S
C2305      H2317   1.110       .  S
C2307      H2318   1.111       .  S
C2307      H2319   1.106       .  S
C2307      H2320   1.110       .  S
C2321      C2322   1.399       .  A
C2321      C2326   1.404       .  A
C2321      H2331   1.084       .  S
C2322      C2327   1.477   1_545  S
C2322      C2323   1.407       .  A
C2323      C2324   1.401       .  A
C2323      C2328   1.507       .  S
C2324      C2325   1.409       .  A
C2324      H2329   1.084       .  S
C2325      C2326   1.420       .  A
C2326      C2330   1.508       .  S
C2327      C2332   1.410   1_565  A
C2327      C3280   1.400       .  A
C2328      H3288   1.110   1_545  S
C2328      H2345   1.110       .  S
C2328      H2346   1.111       .  S
C2330      H2341   1.110       .  S
C2330      H2342   1.111       .  S
C2330      H2343   1.110       .  S
C2332      C3277   1.402   1_545  A
C2332      C2337   1.507       .  S
C2333      C3276   1.402       .  A
C2333      C2334   1.404       .  A
C2333      H2338   1.084       .  S
C2334      C2335   1.418       .  A
C2335      C2336   1.402       .  A
C2335      C2339   1.509       .  S
C2336      C3271   1.400       .  A
C2336      H2340   1.085       .  S
C2337      H2347   1.111       .  S
C2337      H2348   1.110       .  S
C2337      H2349   1.110       .  S
C2339      H2350   1.110       .  S
C2339      H2351   1.107       .  S
C2339      H2352   1.111       .  S
H2344      C3272   1.110       .  S
C2353      C2354   1.400       .  A
C2353      C2358   1.403       .  A
C2353      H3307   1.085       .  S
C2354      C2359   1.478   1_545  S
C2354      C2355   1.408       .  A
C2355      C2356   1.401       .  A
C2355      C2360   1.507       .  S
C2356      C2357   1.407       .  A
C2356      H2361   1.084       .  S
C2357      C2358   1.420       .  A
C2358      C2362   1.509       .  S
C2359      C3308   1.410       .  A
C2359      C3312   1.400   1_565  A
C2360      H2376   1.110       .  S
C2360      H2377   1.110       .  S
C2360      H2378   1.111       .  S
C2362      H2373   1.111       .  S
C2362      H2374   1.110       .  S
C2362      H2375   1.105       .  S
H2363      C3297   1.085       .  S
C2364      C3303   1.410       .  A
C2364      C2365   1.403       .  A
C2364      C2369   1.506       .  S
C2365      C2366   1.403       .  A
C2365      H2370   1.083       .  S
C2366      C2367   1.417       .  A
C2367      C2368   1.401       .  A
C2367      C2371   1.509       .  S
C2368      C3303   1.400       .  A
C2368      H2372   1.085       .  S
C2369      H2379   1.111       .  S
C2369      H2380   1.110       .  S
C2369      H3325   1.110       .  S
C2371      H2382   1.111       .  S
C2371      H2383   1.106       .  S
C2371      H2384   1.110       .  S
H2381      C3313   1.110       .  S
C2385      C2386   1.398       .  A
C2385      C2390   1.405       .  A
C2385      H2395   1.084       .  S
C2386      C3335   1.484       .  S
C2386      C2387   1.408       .  A
C2387      C2388   1.405       .  A
C2387      C2392   1.506       .  S
C2388      C2389   1.411       .  A
C2388      H2393   1.083       .  S
C2389      C2390   1.427       .  A
C2390      C2394   1.508       .  S
C2391      C3330   1.484   1_545  S
C2391      C2396   1.412       .  A
C2391      C2400   1.400       .  A
C2392      H3352   1.110       .  S
C2392      H2409   1.110       .  S
C2392      H2410   1.111       .  S
C2394      H2405   1.110       .  S
C2394      H2406   1.111       .  S
C2394      H2407   1.108       .  S
C2396      C2397   1.406       .  A
C2396      C3345   1.506   1_545  S
C2397      C2398   1.404       .  A
C2397      H2402   1.084       .  S
C2398      C2399   1.416       .  A
C2399      C2400   1.402       .  A
C2399      C2403   1.509       .  S
C2400      H2404   1.085       .  S
C2401      C3340   1.506       .  S
C2401      H2411   1.111       .  S
C2401      H2412   1.110       .  S
C2401      H2413   1.110       .  S
C2403      H2414   1.111       .  S
C2403      H2415   1.107       .  S
C2403      H2416   1.110       .  S
H2408      C3336   1.110   1_545  S
C2417      C2418   1.401       .  A
C2417      C2422   1.404       .  A
C2417      H2427   1.085       .  S
C2418      C2423   1.480       .  S
C2418      C2419   1.409       .  A
C2419      C2420   1.402       .  A
C2419      C2424   1.506       .  S
C2420      C2421   1.405       .  A
C2420      H2425   1.084       .  S
C2421      C2422   1.418       .  A
C2422      C2426   1.509       .  S
C2423      C2428   1.408       .  A
C2423      C2432   1.399       .  A
C2424      H2440   1.110       .  S
C2424      H2441   1.110       .  S
C2424      H2442   1.111       .  S
C2426      H2437   1.110       .  S
C2426      H2438   1.111       .  S
C2426      H2439   1.107       .  S
C2428      C2429   1.403       .  A
C2428      C2433   1.506       .  S
C2429      C2430   1.408       .  A
C2429      H2434   1.084       .  S
C2430      C2431   1.421       .  A
C2431      C2432   1.404       .  A
C2431      C2435   1.508       .  S
C2432      H2436   1.084       .  S
C2433      H2443   1.111       .  S
C2433      H2444   1.110       .  S
C2433      H2445   1.110       .  S
C2435      H2446   1.111       .  S
C2435      H2447   1.111       .  S
C2435      H2448   1.110       .  S
C2449      C2450   1.400       .  A
C2449      C2454   1.401       .  A
C2449      H2459   1.085       .  S
C2450      C2455   1.478       .  S
C2450      C2451   1.410       .  A
C2451      C2452   1.404       .  A
C2451      C2456   1.506       .  S
C2452      C2453   1.404       .  A
C2452      H2457   1.084       .  S
C2453      C2454   1.417       .  A
C2454      C2458   1.509       .  S
C2455      C2460   1.409       .  A
C2455      C2464   1.398       .  A
C2456      H2472   1.110       .  S
C2456      H2473   1.110       .  S
C2456      H2474   1.111       .  S
C2458      H2469   1.111       .  S
C2458      H2470   1.110       .  S
C2458      H2471   1.106       .  S
C2460      C2461   1.404       .  A
C2460      C2465   1.506       .  S
C2461      C2462   1.406       .  A
C2461      H2466   1.084       .  S
C2462      C2463   1.421       .  A
C2463      C2464   1.403       .  A
C2463      C2467   1.509       .  S
C2464      H2468   1.084       .  S
C2465      H2475   1.111       .  S
C2465      H2476   1.110       .  S
C2465      H2477   1.110       .  S
C2467      H2478   1.111       .  S
C2467      H2479   1.111       .  S
C2467      H2480   1.110       .  S
C2481      C2482   1.402       .  A
C2481      C2486   1.404       .  A
C2481      H2491   1.084       .  S
C2482      C2487   1.477       .  S
C2482      C2483   1.409       .  A
C2483      C2484   1.400       .  A
C2483      C2488   1.507       .  S
C2484      C2485   1.403       .  A
C2484      H2489   1.085       .  S
C2485      C2486   1.415       .  A
C2486      C2490   1.508       .  S
C2487      C2492   1.411       .  A
C2487      C2496   1.398       .  A
C2488      H2504   1.110       .  S
C2488      H2505   1.109       .  S
C2488      H2506   1.111       .  S
C2490      H2501   1.111       .  S
C2490      H2502   1.110       .  S
C2490      H2503   1.107       .  S
C2492      C2493   1.405       .  A
C2492      C2497   1.506       .  S
C2493      C2494   1.404       .  A
C2493      H2498   1.084       .  S
C2494      C2495   1.418       .  A
C2495      C2496   1.400       .  A
C2495      C2499   1.510       .  S
C2496      H2500   1.084       .  S
C2497      H2507   1.111       .  S
C2497      H2508   1.110       .  S
C2497      H2509   1.109       .  S
C2499      H2510   1.109       .  S
C2499      H2511   1.111       .  S
C2499      H2512   1.111       .  S
C2513      C2514   1.400       .  A
C2513      C2518   1.405       .  A
C2513      H2523   1.084       .  S
C2514      C3463   1.477       .  S
C2514      C2515   1.407       .  A
C2515      C2516   1.400       .  A
C2515      C2520   1.508       .  S
C2516      C2517   1.409       .  A
C2516      H2521   1.084       .  S
C2517      C2518   1.420       .  A
C2518      C2522   1.508       .  S
C2519      C3458   1.477   1_545  S
C2519      C3468   1.410       .  A
C2519      C2528   1.401       .  A
C2520      H3480   1.110       .  S
C2520      H2537   1.109       .  S
C2520      H2538   1.111       .  S
C2522      H2533   1.109       .  S
C2522      H2534   1.111       .  S
C2522      H2535   1.111       .  S
C2524      C3463   1.410       .  A
C2524      C3469   1.400       .  A
C2524      C2529   1.508       .  S
C2525      C3468   1.400       .  A
C2525      C2526   1.403       .  A
C2525      H2530   1.084       .  S
C2526      C2527   1.416       .  A
C2527      C2528   1.404       .  A
C2527      C2531   1.509       .  S
C2528      H2532   1.084       .  S
C2529      H2539   1.111       .  S
C2529      H2540   1.110       .  S
C2529      H2541   1.109       .  S
C2531      H2542   1.110       .  S
C2531      H2543   1.107       .  S
C2531      H2544   1.111       .  S
H2536      C3464   1.110       .  S
C2545      C2546   1.398       .  A
C2545      C2550   1.399       .  A
C2545      H3499   1.085   1_545  S
C2546      C3495   1.475   1_545  S
C2546      C2547   1.410       .  A
C2547      C2548   1.404       .  A
C2547      C2552   1.506       .  S
C2548      C2549   1.404       .  A
C2548      H2553   1.084       .  S
C2549      C2550   1.418       .  A
C2550      C2554   1.510       .  S
C2551      C3490   1.475       .  S
C2551      C2556   1.409       .  A
C2551      C2560   1.401       .  A
C2552      H2568   1.110       .  S
C2552      H2569   1.109       .  S
C2552      H2570   1.111       .  S
C2554      H3509   1.111       .  S
C2554      H2566   1.110       .  S
C2554      H2567   1.106       .  S
H2555      C3489   1.085       .  S
C2556      C2557   1.400       .  A
C2556      C2561   1.507       .  S
C2557      C2558   1.404       .  A
C2557      H2562   1.084       .  S
C2558      C2559   1.414       .  A
C2559      C2560   1.404       .  A
C2559      C2563   1.505       .  S
C2560      H3508   1.084       .  S
C2561      H2571   1.111       .  S
C2561      H2572   1.110       .  S
C2561      H2573   1.109       .  S
C2563      H2574   1.107       .  S
C2563      H2575   1.110       .  S
C2563      H3520   1.111       .  S
H2564      C3504   1.084   1_545  S
H2565      C3498   1.111       .  S
H2576      C3507   1.111   1_545  S
C2577      C2578   1.398       .  A
C2577      C2582   1.400       .  A
C2577      H2587   1.085       .  S
C2578      C2583   1.479       .  S
C2578      C2579   1.410       .  A
C2579      C2580   1.405       .  A
C2579      C2584   1.506       .  S
C2580      C2581   1.405       .  A
C2580      H2585   1.084       .  S
C2581      C2582   1.420       .  A
C2582      C2586   1.510       .  S
C2583      C2588   1.409       .  A
C2583      C2592   1.399       .  A
C2584      H2600   1.110       .  S
C2584      H2601   1.110       .  S
C2584      H2602   1.111       .  S
C2586      H2597   1.111       .  S
C2586      H2598   1.110       .  S
C2586      H2599   1.105       .  S
C2588      C2589   1.402       .  A
C2588      C2593   1.506       .  S
C2589      C2590   1.406       .  A
C2589      H2594   1.084       .  S
C2590      C2591   1.422       .  A
C2591      C2592   1.404       .  A
C2591      C2595   1.509       .  S
C2592      H2596   1.084       .  S
C2593      H2603   1.111       .  S
C2593      H2604   1.110       .  S
C2593      H2605   1.110       .  S
C2595      H2606   1.109       .  S
C2595      H2607   1.110       .  S
C2595      H2608   1.111       .  S
C2609      C2610   1.399       .  A
C2609      C2614   1.400       .  A
C2609      H2619   1.085       .  S
C2610      C2615   1.482       .  S
C2610      C2611   1.413       .  A
C2611      C2612   1.404       .  A
C2611      C2616   1.507       .  S
C2612      C2613   1.405       .  A
C2612      H2617   1.084       .  S
C2613      C2614   1.420       .  A
C2614      C2618   1.510       .  S
C2615      C2620   1.413       .  A
C2615      C2624   1.401       .  A
C2616      H2632   1.109       .  S
C2616      H2633   1.110       .  S
C2616      H2634   1.111       .  S
C2618      H2629   1.111       .  S
C2618      H2630   1.110       .  S
C2618      H2631   1.105       .  S
C2620      C2621   1.403       .  A
C2620      C2625   1.508       .  S
C2621      C2622   1.403       .  A
C2621      H2626   1.084       .  S
C2622      C2623   1.418       .  A
C2623      C2624   1.402       .  A
C2623      C2627   1.509       .  S
C2624      H2628   1.085       .  S
C2625      H2635   1.111       .  S
C2625      H2636   1.109       .  S
C2625      H2637   1.110       .  S
C2627      H2638   1.110       .  S
C2627      H2639   1.106       .  S
C2627      H2640   1.111       .  S
C2641      C2642   1.398       .  A
C2641      C2646   1.402       .  A
C2641      H2651   1.085   1_554  S
C2642      C3591   1.480   1_544  S
C2643      C2644   1.404       .  A
C2643      C3592   1.506   1_545  S
C2644      H2649   1.084       .  S
C2645      C2646   1.422       .  A
C2646      C2650   1.509       .  S
C2647      C3586   1.479   1_556  S
C2647      C2652   1.409       .  A
C2648      C3587   1.506       .  S
C2648      H2664   1.110       .  S
C2648      H2665   1.110       .  S
C2648      H2666   1.111       .  S
C2650      H2661   1.110       .  S
C2650      H2662   1.111       .  S
C2650      H2663   1.103       .  S
C2652      C2653   1.401       .  A
C2652      C2657   1.507   1_556  S
C2653      C2654   1.404       .  A
C2653      H2658   1.084       .  S
C2655      C2656   1.405       .  A
C2655      C2659   1.508       .  S
C2656      H3604   1.084       .  S
C2657      H2667   1.111       .  S
C2657      H2668   1.110       .  S
C2657      H2669   1.110       .  S
C2659      H2670   1.111       .  S
C2659      H2671   1.107       .  S
C2659      H2672   1.110       .  S
H2660      C3600   1.084   1_545  S
C2673      C2678   1.403       .  A
C2673      H2683   1.084   1_556  S
C2674      C2679   1.481   1_556  S
C2674      C2675   1.410       .  A
C2675      C2676   1.405       .  A
C2675      C2680   1.506       .  S
C2676      H2681   1.084       .  S
C2677      C2678   1.421   1_455  A
C2678      C2682   1.509       .  S
C2679      C2684   1.410       .  A
C2680      H2696   1.110       .  S
C2680      H2697   1.110       .  S
C2680      H2698   1.111       .  S
C2682      H2693   1.111       .  S
C2682      H2694   1.109       .  S
C2682      H2695   1.110       .  S
C2684      C2685   1.406       .  A
C2684      C2689   1.506       .  S
C2685      H2690   1.084       .  S
C2686      C2687   1.417   1_455  A
C2687      C2688   1.403       .  A
C2687      C2691   1.506       .  S
C2688      H2692   1.084   1_554  S
C2689      H2699   1.111       .  S
C2689      H2700   1.110       .  S
C2689      H2701   1.110       .  S
C2691      H2702   1.109       .  S
C2691      H2703   1.110       .  S
C2691      H2704   1.111       .  S
C2705      C2706   1.395       .  A
C2705      C2710   1.400       .  A
C2705      H2715   1.084       .  S
C2706      C2711   1.474       .  S
C2706      C2707   1.408       .  A
C2707      C2708   1.403       .  A
C2707      C2712   1.506       .  S
C2708      C2709   1.408       .  A
C2708      H2713   1.084       .  S
C2709      C2710   1.425       .  A
C2710      C2714   1.510       .  S
C2711      C2716   1.409       .  A
C2711      C2720   1.400       .  A
C2712      H2728   1.110       .  S
C2712      H2729   1.110       .  S
C2712      H2730   1.111       .  S
C2714      H2725   1.110       .  S
C2714      H2726   1.111       .  S
C2714      H2727   1.111       .  S
C2716      C2717   1.401       .  A
C2716      C2721   1.506       .  S
C2717      C2718   1.403       .  A
C2717      H2722   1.084       .  S
C2718      C2719   1.416       .  A
C2719      C2720   1.400       .  A
C2719      C2723   1.510       .  S
C2720      H2724   1.085       .  S
C2721      H2731   1.111       .  S
C2721      H2732   1.110       .  S
C2721      H2733   1.110       .  S
C2723      H2734   1.110       .  S
C2723      H2735   1.107       .  S
C2723      H2736   1.111       .  S
C2737      C2738   1.397       .  A
C2737      C2742   1.401       .  A
C2737      H2747   1.085       .  S
C2738      C2743   1.477       .  S
C2738      C2739   1.409       .  A
C2739      C2740   1.403       .  A
C2739      C2744   1.507       .  S
C2740      C2741   1.407       .  A
C2740      H2745   1.084       .  S
C2741      C2742   1.422       .  A
C2742      C2746   1.508       .  S
C2743      C2748   1.410       .  A
C2743      C2752   1.399       .  A
C2744      H2760   1.110       .  S
C2744      H2761   1.109       .  S
C2744      H2762   1.111       .  S
C2746      H2757   1.110       .  S
C2746      H2758   1.111       .  S
C2746      H2759   1.105       .  S
C2748      C2749   1.402       .  A
C2748      C2753   1.507       .  S
C2749      C2750   1.405       .  A
C2749      H2754   1.084       .  S
C2750      C2751   1.419       .  A
C2751      C2752   1.402       .  A
C2751      C2755   1.510       .  S
C2752      H2756   1.085       .  S
C2753      H2763   1.111       .  S
C2753      H2764   1.110       .  S
C2753      H2765   1.109       .  S
C2755      H2766   1.111       .  S
C2755      H2767   1.107       .  S
C2755      H2768   1.110       .  S
C2769      C2770   1.401       .  A
C2769      C2774   1.402       .  A
C2769      H2779   1.084       .  S
C2770      C3719   1.477   1_545  S
C2770      C3715   1.410   1_545  A
C2771      C3714   1.410       .  A
C2771      C3716   1.402       .  A
C2771      C2776   1.506       .  S
C2772      C3715   1.402   1_545  A
C2772      C2773   1.402       .  A
C2772      H2777   1.085       .  S
C2773      C2774   1.414       .  A
C2774      C2778   1.507       .  S
C2775      C3714   1.478       .  S
C2775      C2780   1.407       .  A
C2775      C2784   1.400       .  A
C2776      H2792   1.110       .  S
C2776      H2793   1.110       .  S
C2776      H2794   1.111       .  S
C2778      H2789   1.110       .  S
C2778      H2790   1.110       .  S
C2778      H2791   1.108       .  S
C2780      C2781   1.400       .  A
C2780      C2785   1.507       .  S
C2781      C2782   1.409       .  A
C2781      H2786   1.084       .  S
C2782      C2783   1.421       .  A
C2783      C2784   1.406       .  A
C2783      C2787   1.508       .  S
C2784      H2788   1.084       .  S
C2785      H2795   1.111       .  S
C2785      H3740   1.110       .  S
C2785      H2797   1.110       .  S
C2787      H2798   1.111       .  S
C2787      H2799   1.111       .  S
C2787      H2800   1.109       .  S
H2796      C3729   1.110       .  S
C2801      C2802   1.397       .  A
C2801      C2806   1.404       .  A
C2801      H2811   1.084       .  S
C2802      C3751   1.477       .  S
C2802      C2803   1.408       .  A
C2803      C2804   1.402       .  A
C2803      C3752   1.507       .  S
C2804      C2805   1.408       .  A
C2804      H2809   1.084       .  S
C2805      C2806   1.423       .  A
C2806      C2810   1.509       .  S
C2807      C3746   1.477   1_545  S
C2807      C3756   1.410       .  A
C2807      C2816   1.399       .  A
C2808      C3747   1.507       .  S
C2808      H2824   1.110       .  S
C2808      H2825   1.109       .  S
C2808      H2826   1.111       .  S
C2810      H2821   1.109       .  S
C2810      H2822   1.111       .  S
C2810      H2823   1.111       .  S
C2812      C3751   1.410       .  A
C2812      C3757   1.402       .  A
C2812      C2817   1.507       .  S
C2813      C3756   1.402       .  A
C2813      C2814   1.405       .  A
C2813      H2818   1.084       .  S
C2814      C2815   1.418       .  A
C2815      C2816   1.402       .  A
C2815      C2819   1.508       .  S
C2816      H2820   1.085       .  S
C2817      H2827   1.111       .  S
C2817      H2828   1.110       .  S
C2817      H2829   1.109       .  S
C2819      H2830   1.111       .  S
C2819      H2831   1.106       .  S
C2819      H2832   1.110       .  S
Fe2833     O2839   2.049       .  S
Fe2833     O2838   2.045       .  S
Fe2834     O2837   2.062       .  S
Fe2834     O2841   2.069       .  S
Fe2834     O2845   2.069       .  S
Fe2834     O2850   2.056       .  S
Fe2834     O2844   1.979       .  S
Fe2835     O2853   2.067       .  S
Fe2835     O2840   2.074       .  S
Fe2835     O2847   2.073       .  S
Fe2835     O2836   2.072       .  S
O2836      C2843   1.271       .  A
O2837      C2851   1.269       .  A
O2838      C2843   1.264       .  A
O2839      C2842   1.264       .  A
O2841      C2854   1.267       .  A
C2842      O2847   1.271       .  A
C2842      C3749   1.489       .  S
C2843      C3653   1.488       .  S
O2845      C2848   1.270       .  A
O2846      C2848   1.266       .  A
C2848      C3694   1.478       .  S
O2849      C2854   1.266       .  A
O2850      C2852   1.266   1_655  A
C2851      C3598   1.475       .  S
C2852      C3621   1.486       .  S
C2854      C3726   1.489       .  S
Fe2855     O2871   2.047       .  S
Fe2855     O2861   2.067       .  S
Fe2855     O2868   2.065       .  S
Fe2855     O2860   2.053       .  S
Fe2855     O2866   1.965       .  S
Fe2856     O2859   2.068       .  S
Fe2856     O2863   2.073       .  S
Fe2856     O2867   2.065       .  S
Fe2856     O2872   2.064       .  S
Fe2856     O2866   1.967       .  S
Fe2857     O2875   2.065       .  S
Fe2857     O2862   2.062       .  S
Fe2857     O2869   2.058       .  S
Fe2857     O2858   2.074       .  S
Fe2857     O2866   1.968       .  S
O2858      C2865   1.269       .  A
O2859      C2873   1.271       .  A
O2860      C2865   1.266       .  A
O2861      C2864   1.269       .  A
O2862      C2874   1.269       .  A
O2863      C2876   1.270       .  A
C2864      O2869   1.268       .  A
C2864      C3758   1.478       .  S
C2865      C3717   1.467       .  S
O2867      C2870   1.270       .  A
O2868      C2870   1.268       .  A
C2870      C3685   1.483       .  S
O2871      C2876   1.265       .  A
O2872      C2874   1.268       .  A
C2873      O2875   1.269       .  A
C2873      C3525   1.477       .  S
C2874      C3557   1.477       .  S
C2876      C3662   1.469       .  S
Fe2877     O2893   2.055       .  S
Fe2877     O2883   2.051       .  S
Fe2877     O2890   2.061       .  S
Fe2877     O2882   2.051       .  S
Fe2877     O2888   1.964       .  S
Fe2878     O2881   2.061       .  S
Fe2878     O2885   2.075       .  S
Fe2878     O2889   2.067       .  S
Fe2878     O2894   2.066       .  S
Fe2878     O2888   1.964       .  S
Fe2879     O2897   2.075       .  S
Fe2879     O2884   2.071       .  S
Fe2879     O2891   2.071       .  S
Fe2879     O2880   2.081       .  S
Fe2879     O2888   1.968       .  S
O2880      C2887   1.273       .  A
O2881      C2895   1.270       .  A
O2882      C2887   1.270       .  A
O2883      C2886   1.264       .  A
O2884      C2896   1.271       .  A
O2885      C2898   1.271       .  A
C2886      O2891   1.269       .  A
C2886      C3438   1.476       .  S
C2887      C3461   1.486       .  S
O2889      C2892   1.269       .  A
O2890      C2892   1.267       .  A
C2892      C3502   1.475       .  S
O2893      C2898   1.267       .  A
O2894      C2896   1.267       .  A
C2895      O2897   1.273       .  A
C2895      C3374   1.487       .  S
C2896      C3333   1.499       .  S
C2898      C3397   1.472       .  S
Fe2899     O2912   2.063       .  S
Fe2899     O2904   2.050       .  S
Fe2899     O2910   1.962       .  S
Fe2900     O2911   2.059       .  S
Fe2900     O2916   2.068       .  S
Fe2900     O2910   1.963       .  S
Fe2901     O2906   2.060       .  S
Fe2901     O2902   2.086       .  S
Fe2901     O2910   1.963       .  S
O2902      C2909   1.274       .  A
O2903      C2917   1.268       .  A
O2904      C2909   1.267       .  A
O2905      C2908   1.266       .  A
O2906      C2918   1.270       .  A
O2907      C2920   1.271       .  A
C2908      O2913   1.268       .  A
C2908      C3429   1.471       .  S
C2909      C3406   1.486       .  S
O2911      C2914   1.267       .  A
O2912      C2914   1.268       .  A
C2914      C3493   1.471       .  S
O2915      C2920   1.267       .  A
O2916      C2918   1.269       .  A
C2917      O2919   1.272       .  A
C2917      C3566   1.475       .  S
C2918      C3534   1.486       .  S
C2920      C3470   1.472       .  S
Fe2921     O2937   2.071       .  S
Fe2921     O2927   2.054       .  S
Fe2921     O2934   2.057       .  S
Fe2921     O2926   2.071       .  S
Fe2921     O2932   1.958       .  S
Fe2922     O2925   2.077       .  S
Fe2922     O2929   2.060       .  S
Fe2922     O2933   2.078       .  S
Fe2922     O2938   2.059       .  S
Fe2922     O2932   1.961       .  S
Fe2923     O2941   2.062       .  S
Fe2923     O2928   2.076       .  S
Fe2923     O2935   2.077       .  S
Fe2923     O2924   2.063       .  S
Fe2923     O2932   1.961       .  S
O2924      C2931   1.268       .  A
O2925      C2939   1.271       .  A
O2926      C2931   1.271       .  A
O2927      C2930   1.268       .  A
O2928      C2940   1.272       .  A
O2929      C2942   1.268       .  A
C2930      O2935   1.271       .  A
C2930      C3301   1.482       .  S
C2931      C3214   1.489       .  S
O2933      C2936   1.271       .  A
O2934      C2936   1.267       .  A
C2936      C3246   1.475       .  S
O2937      C2942   1.271       .  A
O2938      C2940   1.269       .  A
C2939      O2941   1.268       .  A
C2939      C3342   1.475       .  S
C2940      C3365   1.477       .  S
C2942      C3269   1.487       .  S
Fe2943     O2956   2.055   1_455  S
Fe2943     O2948   2.059   1_455  S
Fe2943     O2954   1.979   1_455  S
Fe2944     O2955   2.074       .  S
Fe2944     O2960   2.067       .  S
Fe2944     O2954   1.982       .  S
Fe2945     O2950   2.066   1_455  S
Fe2945     O2946   2.063   1_455  S
Fe2945     O2954   1.982   1_455  S
O2946      C2953   1.269       .  A
O2947      C2961   1.270       .  A
O2948      C2953   1.268       .  A
O2949      C2952   1.266       .  A
O2950      C2962   1.268       .  A
O2951      C2964   1.269       .  A
C2952      O2957   1.269       .  A
C2952      C3310   1.472       .  S
C2953      C3278   1.474       .  S
O2955      C2958   1.270       .  A
O2956      C2958   1.267       .  A
C2958      C3237   1.486       .  S
O2959      C2964   1.268       .  A
O2960      C2962   1.269       .  A
C2961      O2963   1.271       .  A
C2961      C3141   1.476       .  S
C2962      C3173   1.482       .  S
C2964      C3205   1.480       .  S
Fe2965     O2971   2.066       .  S
Fe2965     O2970   2.053       .  S
Fe2965     O2976   1.969       .  S
Fe2966     O2969   2.064       .  S
Fe2966     O2973   2.075       .  S
Fe2966     O2977   2.067       .  S
Fe2966     O2982   2.076       .  S
Fe2967     O2985   2.076       .  S
Fe2967     O2972   2.060       .  S
Fe2967     O2979   2.061       .  S
Fe2967     O2968   2.076       .  S
Fe2967     O2976   1.969       .  S
O2968      C2975   1.270       .  A
O2970      C2975   1.267       .  A
O2971      C2974   1.269       .  A
O2972      C2984   1.268       .  A
O2973      C2986   1.269       .  A
C2974      O2979   1.269       .  A
C2974      C3045   1.479       .  S
C2975      C3077   1.482       .  S
O2977      C2980   1.270       .  A
O2978      C2980   1.268       .  A
C2980      C3118   1.476       .  S
O2981      C2986   1.268       .  A
C2983      O2985   1.271   1_455  A
C2983      C3630   1.481       .  S
C2984      C3589   1.482       .  S
C2986      C3022   1.494       .  S
Fe2987     O3003   2.059       .  S
Fe2987     O2993   2.050       .  S
Fe2987     O3000   2.059       .  S
Fe2987     O2992   2.055       .  S
Fe2987     O2998   1.972       .  S
Fe2988     O2991   2.066       .  S
Fe2988     O2995   2.069       .  S
Fe2988     O2999   2.064       .  S
Fe2988     O3004   2.063       .  S
Fe2988     O2998   1.974       .  S
Fe2989     O3007   2.073       .  S
Fe2989     O2994   2.068       .  S
Fe2989     O3001   2.074       .  S
Fe2989     O2990   2.073       .  S
Fe2989     O2998   1.973       .  S
O2990      C2997   1.272       .  A
O2991      C3005   1.270       .  A
O2992      C2997   1.268       .  A
O2993      C2996   1.263       .  A
O2994      C3006   1.269       .  A
O2995      C3008   1.268       .  A
C2996      O3001   1.270       .  A
C2996      C3054   1.491       .  S
C2997      C3013   1.483       .  S
O2999      C3002   1.268       .  A
O3000      C3002   1.268       .  A
C3002      C3109   1.489       .  S
O3003      C3008   1.267       .  A
O3004      C3006   1.267       .  A
C3005      O3007   1.272       .  A
C3005      C3182   1.480       .  S
C3006      C3150   1.486       .  S
C3008      C3086   1.470       .  S
C3009      C3010   1.401       .  A
C3009      C3014   1.403       .  A
C3009      H3019   1.085       .  S
C3010      C3015   1.482       .  S
C3010      C3011   1.411       .  A
C3011      C3012   1.402       .  A
C3011      C3016   1.507       .  S
C3012      C3013   1.406       .  A
C3012      H3017   1.084       .  S
C3013      C3014   1.420       .  A
C3014      C3018   1.509       .  S
C3015      C3020   1.408       .  A
C3015      C3024   1.400       .  A
C3016      H3032   1.109       .  S
C3016      H3033   1.110       .  S
C3016      H3034   1.111       .  S
C3018      H3029   1.111       .  S
C3018      H3030   1.110       .  S
C3018      H3031   1.107       .  S
C3020      C3021   1.402       .  A
C3020      C3025   1.507       .  S
C3021      C3022   1.410       .  A
C3021      H3026   1.082       .  S
C3022      C3023   1.423       .  A
C3023      C3024   1.404       .  A
C3023      C3027   1.508       .  S
C3024      H3028   1.084       .  S
C3025      H3035   1.111       .  S
C3025      H3036   1.109       .  S
C3025      H3037   1.110       .  S
C3027      H3038   1.111       .  S
C3027      H3039   1.110       .  S
C3027      H3040   1.109       .  S
C3041      C3042   1.399       .  A
C3041      C3046   1.402       .  A
C3041      H3051   1.085       .  S
C3042      C3047   1.477       .  S
C3042      C3043   1.409       .  A
C3043      C3044   1.402       .  A
C3043      C3048   1.507       .  S
C3044      C3045   1.405       .  A
C3044      H3049   1.084       .  S
C3045      C3046   1.419       .  A
C3046      C3050   1.508       .  S
C3047      C3052   1.408       .  A
C3047      C3056   1.397       .  A
C3048      H3064   1.110       .  S
C3048      H3065   1.110       .  S
C3048      H3066   1.111       .  S
C3050      H3061   1.110       .  S
C3050      H3062   1.111       .  S
C3050      H3063   1.105       .  S
C3052      C3053   1.403       .  A
C3052      C3057   1.506       .  S
C3053      C3054   1.408       .  A
C3053      H3058   1.084       .  S
C3054      C3055   1.425       .  A
C3055      C3056   1.403       .  A
C3055      C3059   1.509       .  S
C3056      H3060   1.085       .  S
C3057      H3067   1.111       .  S
C3057      H3068   1.110       .  S
C3057      H3069   1.110       .  S
C3059      H3070   1.111       .  S
C3059      H3071   1.108       .  S
C3059      H3072   1.109       .  S
C3073      C3074   1.400       .  A
C3073      C3078   1.404       .  A
C3074      C3075   1.408       .  A
C3075      C3076   1.401       .  A
C3075      C3080   1.507       .  S
C3076      C3077   1.407       .  A
C3076      H3081   1.084       .  S
C3077      C3078   1.419       .  A
C3078      C3082   1.508       .  S
C3079      C3084   1.410   1_565  A
C3079      C3088   1.401       .  A
C3080      H3096   1.110       .  S
C3080      H3097   1.110       .  S
C3080      H3098   1.111       .  S
C3082      H3093   1.110       .  S
C3082      H3094   1.111       .  S
C3082      H3095   1.106       .  S
C3084      C3085   1.402   1_545  A
C3085      C3086   1.403       .  A
C3085      H3090   1.085       .  S
C3086      C3087   1.414       .  A
C3087      C3088   1.402       .  A
C3087      C3091   1.507       .  S
C3088      H3092   1.085       .  S
C3089      H3099   1.111       .  S
C3089      H3100   1.110       .  S
C3089      H3101   1.110       .  S
C3091      H3102   1.110       .  S
C3091      H3103   1.108       .  S
C3091      H3104   1.110       .  S
C3105      C3106   1.399       .  A
C3105      C3110   1.404       .  A
C3105      H3115   1.084   1_565  S
C3106      C3107   1.406       .  A
C3107      C3108   1.401       .  A
C3107      C3112   1.507       .  S
C3108      C3109   1.410       .  A
C3108      H3113   1.084       .  S
C3109      C3110   1.421       .  A
C3110      C3114   1.508       .  S
C3111      C3116   1.408       .  A
C3111      C3120   1.399       .  A
C3112      H3129   1.110       .  S
C3112      H3130   1.111       .  S
C3114      H3125   1.111   1_565  S
C3114      H3126   1.110       .  S
C3114      H3127   1.110       .  S
C3116      C3117   1.403       .  A
C3117      C3118   1.407       .  A
C3117      H3122   1.084       .  S
C3118      C3119   1.418       .  A
C3119      C3120   1.401       .  A
C3119      C3123   1.508       .  S
C3120      H3124   1.085       .  S
C3121      H3131   1.111       .  S
C3121      H3132   1.110       .  S
C3121      H3133   1.110       .  S
C3123      H3134   1.111       .  S
C3123      H3135   1.104       .  S
C3123      H3136   1.110       .  S
C3137      C3138   1.400       .  A
C3137      C3142   1.403       .  A
C3137      H3147   1.085       .  S
C3138      C3143   1.482       .  S
C3138      C3139   1.411       .  A
C3139      C3140   1.406       .  A
C3139      C3144   1.506       .  S
C3140      C3141   1.404       .  A
C3140      H3145   1.084       .  S
C3141      C3142   1.417       .  A
C3142      C3146   1.509       .  S
C3143      C3148   1.410       .  A
C3143      C3152   1.399       .  A
C3144      H3160   1.110       .  S
C3144      H3161   1.110       .  S
C3144      H3162   1.111       .  S
C3146      H3157   1.111       .  S
C3146      H3158   1.110       .  S
C3146      H3159   1.107       .  S
C3148      C3149   1.405       .  A
C3148      C3153   1.506       .  S
C3149      C3150   1.406       .  A
C3149      H3154   1.084       .  S
C3150      C3151   1.420       .  A
C3151      C3152   1.405       .  A
C3151      C3155   1.509       .  S
C3152      H3156   1.084       .  S
C3153      H3163   1.111       .  S
C3153      H3164   1.110       .  S
C3153      H3165   1.110       .  S
C3155      H3166   1.109       .  S
C3155      H3167   1.111       .  S
C3155      H3168   1.111       .  S
C3169      C3170   1.401       .  A
C3169      C3174   1.406       .  A
C3169      H3179   1.084       .  S
C3170      C3175   1.483       .  S
C3170      C3171   1.409       .  A
C3171      C3172   1.403       .  A
C3171      C3176   1.506       .  S
C3172      C3173   1.406       .  A
C3172      H3177   1.084       .  S
C3173      C3174   1.419       .  A
C3174      C3178   1.508       .  S
C3175      C3180   1.409       .  A
C3175      C3184   1.403       .  A
C3176      H3192   1.110       .  S
C3176      H3193   1.110       .  S
C3176      H3194   1.111       .  S
C3178      H3189   1.111       .  S
C3178      H3190   1.110       .  S
C3178      H3191   1.106       .  S
C3180      C3181   1.402       .  A
C3180      C3185   1.507       .  S
C3181      C3182   1.405       .  A
C3181      H3186   1.084       .  S
C3182      C3183   1.418       .  A
C3183      C3184   1.407       .  A
C3183      C3187   1.508       .  S
C3184      H3188   1.084       .  S
C3185      H3195   1.111       .  S
C3185      H3196   1.110       .  S
C3185      H3197   1.110       .  S
C3187      H3198   1.110       .  S
C3187      H3199   1.107       .  S
C3187      H3200   1.111       .  S
C3201      C3202   1.401       .  A
C3201      C3206   1.404       .  A
C3201      H3211   1.085       .  S
C3202      C3207   1.482       .  S
C3202      C3203   1.411       .  A
C3203      C3204   1.404       .  A
C3203      C3208   1.507       .  S
C3204      C3205   1.405       .  A
C3204      H3209   1.084       .  S
C3205      C3206   1.418       .  A
C3206      C3210   1.508       .  S
C3207      C3212   1.408       .  A
C3207      C3216   1.401       .  A
C3208      H3224   1.110       .  S
C3208      H3225   1.110       .  S
C3208      H3226   1.111       .  S
C3210      H3221   1.111       .  S
C3210      H3222   1.110       .  S
C3210      H3223   1.106       .  S
C3212      C3213   1.402       .  A
C3212      C3217   1.507       .  S
C3213      C3214   1.408       .  A
C3213      H3218   1.084       .  S
C3214      C3215   1.420       .  A
C3215      C3216   1.406       .  A
C3215      C3219   1.508       .  S
C3216      H3220   1.084       .  S
C3217      H3227   1.111       .  S
C3217      H3228   1.110       .  S
C3217      H3229   1.110       .  S
C3219      H3230   1.111       .  S
C3219      H3231   1.110       .  S
C3219      H3232   1.110       .  S
C3233      C3234   1.401       .  A
C3233      C3238   1.405       .  A
C3233      H3243   1.085       .  S
C3234      C3239   1.481       .  S
C3234      C3235   1.408       .  A
C3235      C3236   1.402       .  A
C3235      C3240   1.507       .  S
C3236      C3237   1.408       .  A
C3236      H3241   1.084       .  S
C3237      C3238   1.420       .  A
C3238      C3242   1.508       .  S
C3239      C3244   1.411       .  A
C3239      C3248   1.400       .  A
C3240      H3256   1.110       .  S
C3240      H3257   1.110       .  S
C3240      H3258   1.111       .  S
C3242      H3253   1.111       .  S
C3242      H3254   1.110       .  S
C3242      H3255   1.106       .  S
C3244      C3245   1.405       .  A
C3244      C3249   1.506       .  S
C3245      C3246   1.405       .  A
C3245      H3250   1.084       .  S
C3246      C3247   1.417       .  A
C3247      C3248   1.401       .  A
C3247      C3251   1.510       .  S
C3248      H3252   1.085       .  S
C3249      H3259   1.111       .  S
C3249      H3260   1.110       .  S
C3249      H3261   1.110       .  S
C3251      H3262   1.111       .  S
C3251      H3263   1.106       .  S
C3251      H3264   1.110       .  S
C3265      C3266   1.399       .  A
C3265      C3270   1.404       .  A
C3265      H3275   1.084       .  S
C3266      C3271   1.477       .  S
C3266      C3267   1.407       .  A
C3267      C3268   1.402       .  A
C3267      C3272   1.507       .  S
C3268      C3269   1.409       .  A
C3268      H3273   1.084       .  S
C3269      C3270   1.420       .  A
C3270      C3274   1.508       .  S
C3271      C3276   1.410       .  A
C3272      H3289   1.110       .  S
C3272      H3290   1.111       .  S
C3274      H3285   1.110       .  S
C3274      H3286   1.111       .  S
C3274      H3287   1.110       .  S
C3276      C3281   1.507       .  S
C3277      C3278   1.404       .  A
C3277      H3282   1.084       .  S
C3278      C3279   1.418       .  A
C3279      C3280   1.402       .  A
C3279      C3283   1.509       .  S
C3280      H3284   1.085       .  S
C3281      H3291   1.111       .  S
C3281      H3292   1.110       .  S
C3281      H3293   1.110       .  S
C3283      H3294   1.110       .  S
C3283      H3295   1.107       .  S
C3283      H3296   1.111       .  S
C3297      C3298   1.400       .  A
C3297      C3302   1.403       .  A
C3298      C3303   1.478       .  S
C3298      C3299   1.408       .  A
C3299      C3300   1.401       .  A
C3299      C3304   1.507       .  S
C3300      C3301   1.407       .  A
C3300      H3305   1.084       .  S
C3301      C3302   1.420       .  A
C3302      C3306   1.509       .  S
C3304      H3320   1.110       .  S
C3304      H3321   1.110       .  S
C3304      H3322   1.111       .  S
C3306      H3317   1.111       .  S
C3306      H3318   1.110       .  S
C3306      H3319   1.105       .  S
C3308      C3309   1.403       .  A
C3308      C3313   1.506       .  S
C3309      C3310   1.403       .  A
C3309      H3314   1.083       .  S
C3310      C3311   1.417       .  A
C3311      C3312   1.401   1_565  A
C3311      C3315   1.509   1_565  S
C3312      H3316   1.085       .  S
C3313      H3323   1.111       .  S
C3313      H3324   1.110       .  S
C3315      H3326   1.111       .  S
C3315      H3327   1.106   1_545  S
C3315      H3328   1.110       .  S
C3329      C3330   1.398       .  A
C3329      C3334   1.405       .  A
C3329      H3339   1.084       .  S
C3330      C3331   1.409       .  A
C3331      C3332   1.405       .  A
C3331      C3336   1.506       .  S
C3332      C3333   1.411       .  A
C3332      H3337   1.083       .  S
C3333      C3334   1.427       .  A
C3334      C3338   1.508       .  S
C3335      C3340   1.412       .  A
C3335      C3344   1.400       .  A
C3336      H3353   1.110       .  S
C3336      H3354   1.111       .  S
C3338      H3349   1.110       .  S
C3338      H3350   1.111       .  S
C3338      H3351   1.108       .  S
C3340      C3341   1.406       .  A
C3341      C3342   1.404       .  A
C3341      H3346   1.084       .  S
C3342      C3343   1.416       .  A
C3343      C3344   1.402       .  A
C3343      C3347   1.509       .  S
C3344      H3348   1.085       .  S
C3345      H3355   1.111       .  S
C3345      H3356   1.110       .  S
C3345      H3357   1.110       .  S
C3347      H3358   1.111       .  S
C3347      H3359   1.106       .  S
C3347      H3360   1.110       .  S
C3361      C3362   1.401       .  A
C3361      C3366   1.404       .  A
C3361      H3371   1.085       .  S
C3362      C3367   1.480       .  S
C3362      C3363   1.409       .  A
C3363      C3364   1.402       .  A
C3363      C3368   1.506       .  S
C3364      C3365   1.405       .  A
C3364      H3369   1.084       .  S
C3365      C3366   1.418       .  A
C3366      C3370   1.509       .  S
C3367      C3372   1.408       .  A
C3367      C3376   1.399       .  A
C3368      H3384   1.110       .  S
C3368      H3385   1.110       .  S
C3368      H3386   1.111       .  S
C3370      H3381   1.110       .  S
C3370      H3382   1.111       .  S
C3370      H3383   1.107       .  S
C3372      C3373   1.403       .  A
C3372      C3377   1.506       .  S
C3373      C3374   1.408       .  A
C3373      H3378   1.084       .  S
C3374      C3375   1.421       .  A
C3375      C3376   1.404       .  A
C3375      C3379   1.508       .  S
C3376      H3380   1.084       .  S
C3377      H3387   1.111       .  S
C3377      H3388   1.110       .  S
C3377      H3389   1.110       .  S
C3379      H3390   1.111       .  S
C3379      H3391   1.111       .  S
C3379      H3392   1.110       .  S
C3393      C3394   1.400       .  A
C3393      C3398   1.401       .  A
C3393      H3403   1.085       .  S
C3394      C3399   1.478       .  S
C3394      C3395   1.410       .  A
C3395      C3396   1.404       .  A
C3395      C3400   1.506       .  S
C3396      C3397   1.404       .  A
C3396      H3401   1.084       .  S
C3397      C3398   1.417       .  A
C3398      C3402   1.509       .  S
C3399      C3404   1.409       .  A
C3399      C3408   1.398       .  A
C3400      H3416   1.110       .  S
C3400      H3417   1.110       .  S
C3400      H3418   1.111       .  S
C3402      H3413   1.111       .  S
C3402      H3414   1.110       .  S
C3402      H3415   1.106       .  S
C3404      C3405   1.404       .  A
C3404      C3409   1.506       .  S
C3405      C3406   1.406       .  A
C3405      H3410   1.084       .  S
C3406      C3407   1.421       .  A
C3407      C3408   1.403       .  A
C3407      C3411   1.509       .  S
C3408      H3412   1.084       .  S
C3409      H3419   1.111       .  S
C3409      H3420   1.110       .  S
C3409      H3421   1.110       .  S
C3411      H3422   1.111       .  S
C3411      H3423   1.111       .  S
C3411      H3424   1.110       .  S
C3425      C3426   1.402       .  A
C3425      C3430   1.404       .  A
C3425      H3435   1.084       .  S
C3426      C3431   1.477       .  S
C3426      C3427   1.409       .  A
C3427      C3428   1.400       .  A
C3427      C3432   1.507       .  S
C3428      C3429   1.403       .  A
C3428      H3433   1.085       .  S
C3429      C3430   1.415       .  A
C3430      C3434   1.508       .  S
C3431      C3436   1.411       .  A
C3431      C3440   1.398       .  A
C3432      H3448   1.110       .  S
C3432      H3449   1.109       .  S
C3432      H3450   1.111       .  S
C3434      H3445   1.111       .  S
C3434      H3446   1.110       .  S
C3434      H3447   1.107       .  S
C3436      C3437   1.405       .  A
C3436      C3441   1.506       .  S
C3437      C3438   1.404       .  A
C3437      H3442   1.084       .  S
C3438      C3439   1.418       .  A
C3439      C3440   1.400       .  A
C3439      C3443   1.510       .  S
C3440      H3444   1.084       .  S
C3441      H3451   1.111       .  S
C3441      H3452   1.110       .  S
C3441      H3453   1.109       .  S
C3443      H3454   1.109       .  S
C3443      H3455   1.111       .  S
C3443      H3456   1.111       .  S
C3457      C3458   1.400       .  A
C3457      C3462   1.405       .  A
C3457      H3467   1.084   1_565  S
C3458      C3459   1.407       .  A
C3459      C3460   1.400       .  A
C3459      C3464   1.508       .  S
C3460      C3461   1.408       .  A
C3460      H3465   1.084       .  S
C3461      C3462   1.419       .  A
C3462      C3466   1.508       .  S
C3463      C3472   1.401       .  A
C3464      H3481   1.109       .  S
C3464      H3482   1.111       .  S
C3466      H3477   1.109       .  S
C3466      H3478   1.111       .  S
C3466      H3479   1.111       .  S
C3468      C3473   1.508   1_545  S
C3469      C3470   1.403       .  A
C3469      H3474   1.084       .  S
C3470      C3471   1.417       .  A
C3471      C3472   1.404       .  A
C3471      C3475   1.509       .  S
C3472      H3476   1.084       .  S
C3473      H3483   1.111       .  S
C3473      H3484   1.110       .  S
C3473      H3485   1.109       .  S
C3475      H3486   1.110       .  S
C3475      H3487   1.107       .  S
C3475      H3488   1.111       .  S
C3489      C3490   1.398       .  A
C3489      C3494   1.399       .  A
C3490      C3491   1.410       .  A
C3491      C3492   1.404       .  A
C3491      C3496   1.506       .  S
C3492      C3493   1.404       .  A
C3492      H3497   1.084       .  S
C3493      C3494   1.417       .  A
C3494      C3498   1.510       .  S
C3495      C3500   1.409       .  A
C3495      C3504   1.402       .  A
C3496      H3512   1.110       .  S
C3496      H3513   1.109       .  S
C3496      H3514   1.111       .  S
C3498      H3510   1.110       .  S
C3498      H3511   1.106       .  S
C3500      C3501   1.400       .  A
C3500      C3505   1.507       .  S
C3501      C3502   1.404       .  A
C3501      H3506   1.084       .  S
C3502      C3503   1.414       .  A
C3503      C3504   1.404       .  A
C3503      C3507   1.505       .  S
C3505      H3515   1.111       .  S
C3505      H3516   1.110       .  S
C3505      H3517   1.109       .  S
C3507      H3518   1.107       .  S
C3507      H3519   1.110       .  S
C3521      C3522   1.398       .  A
C3521      C3526   1.400       .  A
C3521      H3531   1.085       .  S
C3522      C3527   1.479       .  S
C3522      C3523   1.410       .  A
C3523      C3524   1.405       .  A
C3523      C3528   1.506       .  S
C3524      C3525   1.405       .  A
C3524      H3529   1.084       .  S
C3525      C3526   1.420       .  A
C3526      C3530   1.510       .  S
C3527      C3532   1.409       .  A
C3527      C3536   1.399       .  A
C3528      H3544   1.110       .  S
C3528      H3545   1.110       .  S
C3528      H3546   1.111       .  S
C3530      H3541   1.111       .  S
C3530      H3542   1.110       .  S
C3530      H3543   1.105       .  S
C3532      C3533   1.402       .  A
C3532      C3537   1.506       .  S
C3533      C3534   1.406       .  A
C3533      H3538   1.084       .  S
C3534      C3535   1.422       .  A
C3535      C3536   1.404       .  A
C3535      C3539   1.509       .  S
C3536      H3540   1.084       .  S
C3537      H3547   1.111       .  S
C3537      H3548   1.110       .  S
C3537      H3549   1.110       .  S
C3539      H3550   1.109       .  S
C3539      H3551   1.110       .  S
C3539      H3552   1.111       .  S
C3553      C3554   1.399       .  A
C3553      C3558   1.400       .  A
C3553      H3563   1.085       .  S
C3554      C3559   1.482       .  S
C3554      C3555   1.413       .  A
C3555      C3556   1.404       .  A
C3555      C3560   1.507       .  S
C3556      C3557   1.405       .  A
C3556      H3561   1.084       .  S
C3557      C3558   1.420       .  A
C3558      C3562   1.510       .  S
C3559      C3564   1.413       .  A
C3559      C3568   1.401       .  A
C3560      H3576   1.109       .  S
C3560      H3577   1.110       .  S
C3560      H3578   1.111       .  S
C3562      H3573   1.111       .  S
C3562      H3574   1.110       .  S
C3562      H3575   1.105       .  S
C3564      C3565   1.403       .  A
C3564      C3569   1.508       .  S
C3565      C3566   1.403       .  A
C3565      H3570   1.084       .  S
C3566      C3567   1.418       .  A
C3567      C3568   1.402       .  A
C3567      C3571   1.509       .  S
C3568      H3572   1.085       .  S
C3569      H3579   1.111       .  S
C3569      H3580   1.109       .  S
C3569      H3581   1.110       .  S
C3571      H3582   1.110       .  S
C3571      H3583   1.106       .  S
C3571      H3584   1.111       .  S
C3585      C3586   1.398       .  A
C3585      C3590   1.402       .  A
C3585      H3595   1.085   1_554  S
C3587      C3588   1.404       .  A
C3588      H3593   1.084       .  S
C3589      C3590   1.422       .  A
C3590      C3594   1.509       .  S
C3591      C3596   1.409       .  A
C3592      H3608   1.110       .  S
C3592      H3609   1.110       .  S
C3592      H3610   1.111       .  S
C3594      H3605   1.110       .  S
C3594      H3606   1.111       .  S
C3594      H3607   1.103       .  S
C3596      C3597   1.401       .  A
C3596      C3601   1.507   1_556  S
C3597      C3598   1.404       .  A
C3597      H3602   1.084       .  S
C3599      C3600   1.405       .  A
C3599      C3603   1.508       .  S
C3601      H3611   1.111       .  S
C3601      H3612   1.110       .  S
C3601      H3613   1.110       .  S
C3603      H3614   1.111   1_565  S
C3603      H3615   1.107       .  S
C3603      H3616   1.110       .  S
C3617      C3622   1.403       .  A
C3617      H3627   1.084   1_556  S
C3618      C3623   1.481   1_556  S
C3618      C3619   1.410       .  A
C3619      C3620   1.405       .  A
C3619      C3624   1.506       .  S
C3620      H3625   1.084       .  S
C3621      C3622   1.421   1_455  A
C3622      C3626   1.509       .  S
C3623      C3628   1.410       .  A
C3624      H3640   1.110       .  S
C3624      H3641   1.110       .  S
C3624      H3642   1.111       .  S
C3626      H3637   1.111       .  S
C3626      H3638   1.109       .  S
C3626      H3639   1.110       .  S
C3628      C3629   1.406       .  A
C3628      C3633   1.506       .  S
C3629      H3634   1.084       .  S
C3630      C3631   1.417   1_455  A
C3631      C3632   1.403       .  A
C3631      C3635   1.506       .  S
C3632      H3636   1.084   1_554  S
C3633      H3643   1.111       .  S
C3633      H3644   1.110       .  S
C3633      H3645   1.110       .  S
C3635      H3646   1.109       .  S
C3635      H3647   1.110       .  S
C3635      H3648   1.111       .  S
C3649      C3650   1.395       .  A
C3649      C3654   1.400       .  A
C3649      H3659   1.084       .  S
C3650      C3655   1.474       .  S
C3650      C3651   1.408       .  A
C3651      C3652   1.403       .  A
C3651      C3656   1.506       .  S
C3652      C3653   1.408       .  A
C3652      H3657   1.084       .  S
C3653      C3654   1.425       .  A
C3654      C3658   1.510       .  S
C3655      C3660   1.409       .  A
C3655      C3664   1.400       .  A
C3656      H3672   1.110       .  S
C3656      H3673   1.110       .  S
C3656      H3674   1.111       .  S
C3658      H3669   1.110       .  S
C3658      H3670   1.111       .  S
C3658      H3671   1.111       .  S
C3660      C3661   1.401       .  A
C3660      C3665   1.506       .  S
C3661      C3662   1.403       .  A
C3661      H3666   1.084       .  S
C3662      C3663   1.417       .  A
C3663      C3664   1.401       .  A
C3663      C3667   1.510       .  S
C3664      H3668   1.085       .  S
C3665      H3675   1.111       .  S
C3665      H3676   1.110       .  S
C3665      H3677   1.110       .  S
C3667      H3678   1.110       .  S
C3667      H3679   1.107       .  S
C3667      H3680   1.111       .  S
C3681      C3682   1.397       .  A
C3681      C3686   1.401       .  A
C3681      H3691   1.085       .  S
C3682      C3687   1.477       .  S
C3682      C3683   1.409       .  A
C3683      C3684   1.403       .  A
C3683      C3688   1.507       .  S
C3684      C3685   1.406       .  A
C3684      H3689   1.084       .  S
C3685      C3686   1.422       .  A
C3686      C3690   1.508       .  S
C3687      C3692   1.410       .  A
C3687      C3696   1.399       .  A
C3688      H3704   1.110       .  S
C3688      H3705   1.109       .  S
C3688      H3706   1.111       .  S
C3690      H3701   1.110       .  S
C3690      H3702   1.111       .  S
C3690      H3703   1.105       .  S
C3692      C3693   1.402       .  A
C3692      C3697   1.507       .  S
C3693      C3694   1.405       .  A
C3693      H3698   1.084       .  S
C3694      C3695   1.419       .  A
C3695      C3696   1.402       .  A
C3695      C3699   1.509       .  S
C3696      H3700   1.085       .  S
C3697      H3707   1.111       .  S
C3697      H3708   1.110       .  S
C3697      H3709   1.109       .  S
C3699      H3710   1.111       .  S
C3699      H3711   1.107       .  S
C3699      H3712   1.110       .  S
C3713      C3714   1.401       .  A
C3713      C3718   1.402       .  A
C3713      H3723   1.084       .  S
C3715      C3720   1.506       .  S
C3716      C3717   1.402       .  A
C3716      H3721   1.085       .  S
C3717      C3718   1.414       .  A
C3718      C3722   1.507       .  S
C3719      C3724   1.407       .  A
C3719      C3728   1.400       .  A
C3720      H3736   1.110       .  S
C3720      H3737   1.110       .  S
C3720      H3738   1.111       .  S
C3722      H3733   1.110       .  S
C3722      H3734   1.110       .  S
C3722      H3735   1.108       .  S
C3724      C3725   1.400       .  A
C3724      C3729   1.507       .  S
C3725      C3726   1.409       .  A
C3725      H3730   1.084       .  S
C3726      C3727   1.421       .  A
C3727      C3728   1.406       .  A
C3727      C3731   1.508       .  S
C3728      H3732   1.084   1_565  S
C3729      H3739   1.111       .  S
C3729      H3741   1.110       .  S
C3731      H3742   1.111       .  S
C3731      H3743   1.111       .  S
C3731      H3744   1.109       .  S
C3745      C3746   1.397       .  A
C3745      C3750   1.404       .  A
C3745      H3755   1.084   1_565  S
C3746      C3747   1.408       .  A
C3747      C3748   1.402       .  A
C3748      C3749   1.408       .  A
C3748      H3753   1.084       .  S
C3749      C3750   1.423       .  A
C3750      C3754   1.509       .  S
C3751      C3760   1.399       .  A
C3752      H3768   1.110       .  S
C3752      H3769   1.109       .  S
C3752      H3770   1.111       .  S
C3754      H3765   1.109       .  S
C3754      H3766   1.111       .  S
C3754      H3767   1.111       .  S
C3756      C3761   1.507   1_545  S
C3757      C3758   1.405       .  A
C3757      H3762   1.084       .  S
C3758      C3759   1.419       .  A
C3759      C3760   1.402       .  A
C3759      C3763   1.508       .  S
C3760      H3764   1.085       .  S
C3761      H3771   1.111       .  S
C3761      H3772   1.110       .  S
C3761      H3773   1.109       .  S
C3763      H3774   1.111       .  S
C3763      H3775   1.106       .  S
C3763      H3776   1.110       .  S
