geometry optimzed in LAMMPS
_audit_creation_date              2020-11-30 
_audit_creation_method            'lammps2cif' 
_symmetry_space_group_name_H-M    'P1' 
_symmetry_Int_Tables_number       1 
_symmetry_cell_setting            triclinic 
loop_ 
_symmetry_equiv_pos_as_xyz 
  x,y,z 
_cell_length_a                    26.893493047373376 
_cell_length_b                    26.698304236728777 
_cell_length_c                    22.661735880489154 
_cell_angle_alpha                 90.27051052040812 
_cell_angle_beta                  89.93376591698514 
_cell_angle_gamma                 89.09727100861217 
loop_ 
_atom_site_label 
_atom_site_type_symbol 
_atom_site_fract_x 
_atom_site_fract_y 
_atom_site_fract_z 
_atom_site_charge 
O1          O  0.44545151  0.32506944  0.06925692    -0.72810
O2          O  0.55317422  0.32915286  0.94845478    -0.73790
O3          O  0.44747354  0.32289714  0.94499067    -0.62410
O4          O  0.54964417  0.33150552  0.07138596    -0.70820
O5          O  0.55795479  0.24876809  0.07299484    -0.70370
O6          O  0.45190496  0.23972928  0.94753460    -0.61630
O7          O  0.55882412  0.24605818  0.94820023    -0.74140
O8          O  0.45198077  0.24210513  0.07201084    -0.72910
Cu9        Cu  0.49868354  0.32992240  0.00822653     1.04560
Cu10       Cu  0.50539191  0.24112763  0.01005734     1.04330
C11         C  0.43135454  0.28301878  0.08937550     0.93390
C12         C  0.57453306  0.28858688  0.93132268     0.92530
C13         C  0.43227445  0.28021686  0.92782423     0.84670
C14         C  0.57035248  0.29201075  0.09197725     0.90940
O15         O  0.17644145  0.62605818  0.92681413    -0.72810
O16         O  0.17719292  0.51666311  0.04907911    -0.73790
O17         O  0.17511411  0.62506750  0.05277344    -0.62410
O18         O  0.17971285  0.51827418  0.92436333    -0.70820
O19         O  0.26189171  0.52113066  0.92655238    -0.70370
O20         O  0.25768205  0.62302619  0.05506066    -0.61630
O21         O  0.25976447  0.51670079  0.04884098    -0.74140
O22         O  0.25893141  0.62625782  0.93001237    -0.72910
Cu23       Cu  0.17402992  0.57174646  0.98836523     1.04560
Cu24       Cu  0.26222232  0.57212473  0.99036071     1.04330
C25         C  0.21796461  0.64271145  0.90854718     0.93390
C26         C  0.21884558  0.49742129  0.06505920     0.92530
C27         C  0.21622991  0.64058397  0.07397690     0.84670
C28         C  0.22220881  0.50222770  0.90612095     0.90940
O29         O  0.55007024  0.79903707  0.05982316    -0.72810
O30         O  0.44806567  0.80418482  0.93093694    -0.73790
O31         O  0.55273122  0.80785147  0.93448093    -0.62410
O32         O  0.44571996  0.79527654  0.05532756    -0.70820
O33         O  0.44151510  0.87766572  0.06646242    -0.70370
O34         O  0.54912467  0.89081475  0.94163175    -0.61630
O35         O  0.44205341  0.88684555  0.94114937    -0.74140
O36         O  0.54769789  0.88203870  0.06700739    -0.72910
Cu37       Cu  0.49936050  0.79885888  0.99477740     1.04560
Cu38       Cu  0.49494998  0.88738954  0.00424910     1.04330
C39         C  0.56495662  0.83956031  0.08368886     0.93390
C40         C  0.42813081  0.84612877  0.91677123     0.92530
C41         C  0.56780872  0.85085783  0.91866941     0.84670
C42         C  0.42708557  0.83390374  0.08091437     0.90940
O43         O  0.82428160  0.51455121  0.92881509    -0.72810
O44         O  0.82175256  0.61817475  0.05796266    -0.73790
O45         O  0.82776907  0.51054152  0.05481643    -0.62410
O46         O  0.81727388  0.62124720  0.93274257    -0.70820
O47         O  0.73528378  0.61651924  0.93909680    -0.70370
O48         O  0.74530251  0.50719495  0.05717670    -0.61630
O49         O  0.73955868  0.61236385  0.06304535    -0.74140
O50         O  0.74199063  0.51162865  0.93233840    -0.72910
Cu51       Cu  0.82582685  0.56621218  0.99355907     1.04560
Cu52       Cu  0.73783557  0.56175774  0.99805921     1.04330
C53         C  0.78336170  0.49695523  0.90988290     0.93390
C54         C  0.78006684  0.63196541  0.08025463     0.92530
C55         C  0.78772612  0.49166649  0.07498361     0.84670
C56         C  0.77388439  0.63592924  0.91649293     0.90940
O57         O  0.34021530  0.12159707  0.55978691    -0.72810
O58         O  0.32806282  0.01765891  0.42956674    -0.73790
O59         O  0.32940994  0.12601545  0.43350186    -0.62410
O60         O  0.33766726  0.01421826  0.55403012    -0.70820
O61         O  0.25528274  0.01807133  0.56162519    -0.70370
O62         O  0.24748014  0.12952078  0.44596490    -0.61630
O63         O  0.24617351  0.02382843  0.43903219    -0.74140
O64         O  0.25802013  0.12217505  0.56986735    -0.72910
Cu65       Cu  0.33698398  0.07011194  0.49368289     1.04560
Cu66       Cu  0.24913546  0.07374816  0.50420970     1.04330
C67         C  0.30072974  0.13689330  0.58626059     0.93390
C68         C  0.28459003  0.00248177  0.41633076     0.92530
C69         C  0.28675455  0.14512361  0.42101728     0.84670
C70         C  0.29698669  0.99837477  0.57590230     0.90940
O71         O  0.94712150  0.82700873  0.55650406    -0.72810
O72         O  0.04888851  0.81449473  0.42830762    -0.73790
O73         O  0.94537653  0.81874907  0.43289550    -0.62410
O74         O  0.05176716  0.82450844  0.55248248    -0.70820
O75         O  0.05293710  0.74202127  0.56262870    -0.70370
O76         O  0.94263605  0.73601555  0.43911714    -0.61630
O77         O  0.04921624  0.73173257  0.43639718    -0.74140
O78         O  0.94551188  0.74445712  0.56508056    -0.72910
Cu79       Cu  0.99839017  0.82378230  0.49236740     1.04560
Cu80       Cu  0.99756367  0.73541462  0.50116727     1.04330
C81         C  0.92966703  0.78792940  0.58083434     0.93390
C82         C  0.06508827  0.77139663  0.41181139     0.92530
C83         C  0.92700953  0.77727121  0.41652258     0.84670
C84         C  0.06951838  0.78519201  0.57688864     0.90940
O85         O  0.66876978  0.01671085  0.55933241    -0.72810
O86         O  0.67715056  0.12120237  0.43151826    -0.73790
O87         O  0.66765913  0.01392037  0.43442873    -0.62410
O88         O  0.67837024  0.12349589  0.55692913    -0.70820
O89         O  0.76041800  0.11347481  0.55560028    -0.70370
O90         O  0.75013517  0.00678351  0.43386425    -0.61630
O91         O  0.75915660  0.11183739  0.43189696    -0.74140
O92         O  0.75120631  0.00900343  0.55782862    -0.72910
Cu93       Cu  0.66990544  0.06922460  0.49553242     1.04560
Cu94       Cu  0.75791113  0.06003378  0.49468629     1.04330
C95         C  0.70899884  0.99616517  0.57790887     0.93390
C96         C  0.71995955  0.13336719  0.41204250     0.92530
C97         C  0.70767172  0.99274321  0.41579940     0.84670
C98         C  0.72146576  0.13563618  0.57544773     0.90940
O99         O  0.94876170  0.30455753  0.44135031    -0.72810
O100        O  0.05446110  0.29749987  0.56446367    -0.73790
O101        O  0.94976518  0.30340796  0.56593768    -0.62410
O102        O  0.05265390  0.29845795  0.44024239    -0.70820
O103        O  0.05764283  0.38133740  0.44125470    -0.70370
O104        O  0.95223609  0.38655939  0.56832620    -0.61630
O105        O  0.05957073  0.38024193  0.56726657    -0.74140
O106        O  0.95147306  0.38771496  0.44316498    -0.72910
Cu107      Cu  0.00138160  0.29826784  0.50304792     1.04560
Cu108      Cu  0.00546861  0.38705940  0.50512947     1.04330
C109        C  0.93323855  0.34711932  0.42308454     0.93390
C110        C  0.07416102  0.33709114  0.58524225     0.92530
C111        C  0.93412500  0.34537003  0.58638509     0.84670
C112        C  0.07115327  0.33869311  0.42030173     0.90940
C113        C  0.24611092  0.31612932  0.20445286     0.00700
C114        C  0.22583657  0.29594585  0.25457507     0.00700
C115        C  0.76085088  0.31282372  0.28298333     0.00700
C116        C  0.74264670  0.33288820  0.23224245     0.00700
C117        C  0.74812098  0.31862252  0.78212734     0.00700
C118        C  0.76754395  0.29823924  0.73118119     0.00700
C119        C  0.73392659  0.79877875  0.22907910     0.00700
C120        C  0.75406419  0.82004857  0.27767695     0.00700
C121        C  0.73174014  0.80619681  0.76805024     0.00700
C122        C  0.75272435  0.82532926  0.71849972     0.00700
C123        C  0.26347145  0.79609193  0.23875276     0.00700
C124        C  0.24101849  0.81555390  0.28894848     0.00700
C125        C  0.25847399  0.81363808  0.76934997     0.00700
C126        C  0.23840586  0.83682092  0.72150973     0.00700
C127        C  0.25737331  0.31439937  0.78853637     0.00700
C128        C  0.23893221  0.28993503  0.74074140     0.00700
C129        C  0.11385101  0.33120316  0.63052261    -0.00020
C130        C  0.11243959  0.28847930  0.66606294    -0.11900
C131        C  0.15101016  0.27644335  0.70478287     0.02210
C132        C  0.19329069  0.30710709  0.70839527    -0.00110
C133        C  0.19394077  0.35137424  0.67497893    -0.11840
C134        C  0.15437613  0.36400103  0.63682767     0.02100
H135        H  0.08097321  0.26363784  0.66309310     0.15080
H136        H  0.22618663  0.37519265  0.67714043     0.15080
C137        C  0.15757296  0.40945226  0.60301020     0.36730
C138        C  0.14471720  0.23260371  0.74072597     0.36640
N139        N  0.16021320  0.44621907  0.57644161    -0.43610
N140        N  0.13668142  0.19760305  0.76888411    -0.43610
C141        C  0.10774682  0.33453371  0.37188707    -0.00020
C142        C  0.10220886  0.29522849  0.33120954    -0.11900
C143        C  0.13790654  0.28558432  0.28783272     0.02210
C144        C  0.18086120  0.31497427  0.28518618    -0.00110
C145        C  0.18533166  0.35606234  0.32386515    -0.11840
C146        C  0.14896232  0.36633206  0.36674076     0.02100
H147        H  0.07000107  0.27138147  0.33375327     0.15080
H148        H  0.21844725  0.37870046  0.32212730     0.15080
C149        C  0.15673948  0.40741828  0.40707719     0.36730
C150        C  0.12867018  0.24626772  0.24561594     0.36640
N151        N  0.16319519  0.44054338  0.43911823    -0.43610
N152        N  0.11955601  0.21523496  0.21169008    -0.43610
C153        C  0.89146405  0.34870366  0.38135793    -0.00020
C154        C  0.84463652  0.36232855  0.40351206    -0.11900
C155        C  0.80169490  0.35372547  0.37058829     0.02210
C156        C  0.80543211  0.33317878  0.31312641    -0.00110
C157        C  0.85278302  0.32308486  0.28923312    -0.11840
C158        C  0.89568678  0.32970641  0.32338102     0.02100
H159        H  0.84133656  0.37628396  0.44842974     0.15080
H160        H  0.85594953  0.30657271  0.24554705     0.15080
C161        C  0.94331229  0.31476046  0.29910346     0.36730
C162        C  0.75436945  0.36369817  0.39862502     0.36640
N163        N  0.98137821  0.30265684  0.27940934    -0.43610
N164        N  0.71710080  0.37226949  0.42245496    -0.43610
C165        C  0.89376357  0.34501323  0.63019855    -0.00020
C166        C  0.84603920  0.36130080  0.61340408    -0.11900
C167        C  0.80442315  0.34981852  0.64792626     0.02210
C168        C  0.81057124  0.32174449  0.70020767    -0.00110
C169        C  0.85892730  0.30968268  0.71927185    -0.11840
C170        C  0.90030993  0.32069391  0.68462385     0.02100
H171        H  0.84093057  0.38017576  0.57151164     0.15080
H172        H  0.86432720  0.28927037  0.75993107     0.15080
C173        C  0.94906777  0.30510330  0.70470764     0.36730
C174        C  0.75591199  0.36582824  0.62769324     0.36640
N175        N  0.98815212  0.29276422  0.72088996    -0.43610
N176        N  0.71726307  0.37904669  0.61095392    -0.43610
C177        C  0.72764356  0.17536736  0.62029411    -0.00020
C178        C  0.76758455  0.17044000  0.65975401    -0.11900
C179        C  0.77863726  0.20848339  0.69979596     0.02210
C180        C  0.74980392  0.25310615  0.70039378    -0.00110
C181        C  0.70878963  0.25757097  0.66229484    -0.11840
C182        C  0.69720765  0.21896332  0.62270642     0.02100
H183        H  0.79041341  0.13656422  0.65933203     0.15080
H184        H  0.68645098  0.29170856  0.66271912     0.15080
C185        C  0.65591313  0.22643545  0.58291009     0.36730
C186        C  0.81823281  0.19963007  0.74156051     0.36640
N187        N  0.62279150  0.23251362  0.55104046    -0.43610
N188        N  0.84973313  0.19160403  0.77512331    -0.43610
C189        C  0.74334908  0.26393213  0.30629355    -0.00020
C190        C  0.77680196  0.22317645  0.30301878    -0.11900
C191        C  0.76802669  0.17877704  0.33324524     0.02210
C192        C  0.72509787  0.17462587  0.36884808    -0.00110
C193        C  0.68939894  0.21372357  0.36803177    -0.11840
C194        C  0.69808987  0.25817753  0.33700012     0.02100
H195        H  0.81097019  0.22663260  0.27801979     0.15080
H196        H  0.65592336  0.21084147  0.39444678     0.15080
C197        C  0.66121818  0.29788511  0.34033716     0.36730
C198        C  0.80435140  0.13857331  0.32752290     0.36640
N199        N  0.63116917  0.32929804  0.34348713    -0.43610
N200        N  0.83349631  0.10643501  0.32282628    -0.43610
C201        C  0.70607306  0.95007237  0.37487128    -0.00020
C202        C  0.69817508  0.90237635  0.39821454    -0.11900
C203        C  0.71011634  0.85930426  0.36535535     0.02210
C204        C  0.73007000  0.86384539  0.30801251    -0.00110
C205        C  0.73355853  0.91169956  0.28300394    -0.11840
C206        C  0.72210582  0.95472956  0.31611394     0.02100
H207        H  0.68575935  0.89877401  0.44348890     0.15080
H208        H  0.74848811  0.91582483  0.23911278     0.15080
C209        C  0.72929912  0.00334716  0.29007573     0.36730
C210        C  0.70343298  0.81104074  0.39242091     0.36640
N211        N  0.73477039  0.04237132  0.26925496    -0.43610
N212        N  0.69786389  0.77256114  0.41457109    -0.43610
C213        C  0.72968502  0.86903478  0.68764291    -0.00020
C214        C  0.73372856  0.91715210  0.71247423    -0.11900
C215        C  0.72340880  0.95990198  0.67861711     0.02210
C216        C  0.70761314  0.95449960  0.61974272    -0.00110
C217        C  0.69981602  0.90665773  0.59659476    -0.11840
C218        C  0.71137159  0.86401534  0.62956415     0.02100
H219        H  0.74833094  0.92131972  0.75676836     0.15080
H220        H  0.68817141  0.90258836  0.55106243     0.15080
C221        C  0.70690613  0.81582099  0.60112483     0.36730
C222        C  0.73159993  0.00882591  0.70387220     0.36640
N223        N  0.70297547  0.77771083  0.57718240    -0.43610
N224        N  0.73803942  0.04811675  0.72398035    -0.43610
C225        C  0.19216034  0.79326799  0.30539286    -0.00020
C226        C  0.19144733  0.75209948  0.34374398    -0.11900
C227        C  0.14759561  0.73886074  0.37289961     0.02210
C228        C  0.10433905  0.76896960  0.36593584    -0.00110
C229        C  0.10355816  0.80562994  0.32164974    -0.11840
C230        C  0.14685872  0.81735612  0.29067239     0.02100
H231        H  0.22603572  0.73386520  0.35605094     0.15080
H232        H  0.06999342  0.82782994  0.31446761     0.15080
C233        C  0.14471701  0.85727714  0.24808874     0.36730
C234        C  0.15015214  0.69892361  0.41548266     0.36640
N235        N  0.14208488  0.88913301  0.21376062    -0.43610
N236        N  0.15245211  0.66655672  0.44917146    -0.43610
C237        C  0.10938285  0.79203351  0.62167126    -0.00020
C238        C  0.10976233  0.83789552  0.65224426    -0.11900
C239        C  0.14981237  0.85147732  0.68763767     0.02210
C240        C  0.19150783  0.81910046  0.69304177    -0.00110
C241        C  0.19008706  0.77172573  0.66553481    -0.11840
C242        C  0.14910445  0.75764109  0.63086440     0.02100
H243        H  0.07883872  0.86415500  0.64735909     0.15080
H244        H  0.22186735  0.74646780  0.66919243     0.15080
C245        C  0.14981851  0.70865604  0.60382330     0.36730
C246        C  0.14669141  0.89935832  0.71726721     0.36640
N247        N  0.15043179  0.66896295  0.58310066    -0.43610
N248        N  0.14235280  0.93787933  0.74047466    -0.43610
C249        C  0.88930667  0.79338219  0.62558567    -0.00020
C250        C  0.85421920  0.75512264  0.63174730    -0.11900
C251        C  0.81086363  0.76247328  0.66572262     0.02210
C252        C  0.80226111  0.80882328  0.69458750    -0.00110
C253        C  0.83942016  0.84515856  0.69239232    -0.11840
C254        C  0.88249146  0.83796862  0.65869316     0.02100
H255        H  0.85914756  0.72042678  0.60720884     0.15080
H256        H  0.83377807  0.88049917  0.71542448     0.15080
C257        C  0.91852602  0.87755743  0.65837144     0.36730
C258        C  0.77464539  0.72321549  0.66658463     0.36640
N259        N  0.94729809  0.90934575  0.65817574    -0.43610
N260        N  0.74593364  0.69137778  0.66674966    -0.43610
C261        C  0.88697432  0.77932833  0.37164467    -0.00020
C262        C  0.88671577  0.82007206  0.33259502    -0.11900
C263        C  0.84513575  0.83152102  0.29822266     0.02210
C264        C  0.80236507  0.80197752  0.30249409    -0.00110
C265        C  0.80428823  0.75827811  0.33681071    -0.11840
C266        C  0.84623988  0.74660481  0.37125728     0.02100
H267        H  0.91849115  0.84457936  0.33077175     0.15080
H268        H  0.77192273  0.73486999  0.33960972     0.15080
C269        C  0.84485416  0.70309296  0.40869363     0.36730
C270        C  0.84712527  0.87472505  0.26027596     0.36640
N271        N  0.84369880  0.66805095  0.43849678    -0.43610
N272        N  0.84964314  0.90945422  0.23011365    -0.43610
C273        C  0.28159552  0.18445897  0.37593628    -0.00020
C274        C  0.27064031  0.16997117  0.31799021    -0.11900
C275        C  0.25413666  0.20523303  0.27632107     0.02210
C276        C  0.25295553  0.25695740  0.29090001    -0.00110
C277        C  0.26853441  0.27124107  0.34766836    -0.11840
C278        C  0.27876255  0.23558385  0.39107344     0.02100
H279        H  0.27056765  0.13038949  0.30683728     0.15080
H280        H  0.26744126  0.31038939  0.36030157     0.15080
C281        C  0.27715578  0.25222770  0.45158316     0.36730
C282        C  0.23412988  0.18600215  0.22199050     0.36640
N283        N  0.27250687  0.26726750  0.49922230    -0.43610
N284        N  0.21814523  0.16877617  0.17919613    -0.43610
C285        C  0.26808321  0.24880704  0.71173654    -0.00020
C286        C  0.29723712  0.26054149  0.66232578    -0.11900
C287        C  0.31719105  0.22246938  0.62633234     0.02210
C288        C  0.30256161  0.17284402  0.63556091    -0.00110
C289        C  0.27872195  0.16064983  0.68861157    -0.11840
C290        C  0.26424145  0.19831227  0.72855418     0.02100
H291        H  0.30359475  0.29942746  0.65139130     0.15080
H292        H  0.27011294  0.12191040  0.69787939     0.15080
C293        C  0.24613223  0.18436452  0.78596708     0.36730
C294        C  0.35119658  0.23496070  0.57958290     0.36640
N295        N  0.23253539  0.17282318  0.83235363    -0.43610
N296        N  0.37900875  0.24480767  0.54255142    -0.43610
C297        C  0.26476943  0.87770542  0.69032602    -0.00020
C298        C  0.28120488  0.86782436  0.63253271    -0.11900
C299        C  0.29720237  0.90645024  0.59600375     0.02210
C300        C  0.29640744  0.95611600  0.61710684    -0.00110
C301        C  0.28344929  0.96570875  0.67602012    -0.11840
C302        C  0.26823700  0.92694796  0.71304519     0.02100
H303        H  0.27918770  0.83004352  0.61494367     0.15080
H304        H  0.28230963  0.00407901  0.69205322     0.15080
C305        C  0.25244626  0.93999680  0.77203361     0.36730
C306        C  0.31075445  0.89464499  0.53582339     0.36640
N307        N  0.23964017  0.95172790  0.81894101    -0.43610
N308        N  0.32185736  0.88467051  0.48779919    -0.43610
C309        C  0.27710665  0.95603435  0.38099231    -0.00020
C310        C  0.23564971  0.92817936  0.39605848    -0.11900
C311        C  0.22830719  0.88026931  0.37389128     0.02210
C312        C  0.25804526  0.86076294  0.32634909    -0.00110
C313        C  0.30237486  0.88741359  0.31503801    -0.11840
C314        C  0.31205089  0.93425870  0.34174402     0.02100
H315        H  0.21098253  0.94180034  0.43080304     0.15080
H316        H  0.33118522  0.87191132  0.28745766     0.15080
C317        C  0.35796241  0.95893750  0.32798248     0.36730
C318        C  0.19627191  0.85098804  0.41082911     0.36640
N319        N  0.39488174  0.97856708  0.31700446    -0.43610
N320        N  0.17174806  0.83053802  0.44477547    -0.43610
C321        C  0.78909829  0.45153670  0.11948323    -0.00020
C322        C  0.77343382  0.46305748  0.17711687    -0.11900
C323        C  0.76197617  0.42499389  0.21719332     0.02210
C324        C  0.76729305  0.37429688  0.19999084    -0.00110
C325        C  0.78633543  0.36305909  0.14369120    -0.11840
C326        C  0.79615208  0.40097763  0.10309810     0.02100
H327        H  0.76670546  0.50190460  0.18943182     0.15080
H328        H  0.78951823  0.32428085  0.12958669     0.15080
C329        C  0.80737182  0.38654211  0.04313340     0.36730
C330        C  0.74006910  0.43923540  0.27297332     0.36640
N331        N  0.81531281  0.37363981  0.99522933    -0.43610
N332        N  0.72204310  0.45177706  0.31710697    -0.43610
C333        C  0.77768326  0.67200172  0.12509354    -0.00020
C334        C  0.74700925  0.66544510  0.17436593    -0.11900
C335        C  0.73616103  0.70539514  0.21251490     0.02210
C336        C  0.75574385  0.75310179  0.20102864    -0.00110
C337        C  0.78970543  0.75861529  0.15461935    -0.11840
C338        C  0.80058841  0.71859670  0.11633233     0.02100
H339        H  0.72998019  0.62943073  0.18178117     0.15080
H340        H  0.80539432  0.79498403  0.14609405     0.15080
C341        C  0.83115119  0.72779966  0.06520228     0.36730
C342        C  0.70356309  0.69668623  0.26190009     0.36640
N343        N  0.85535826  0.73532664  0.02402925    -0.43610
N344        N  0.67772626  0.68918047  0.30165730    -0.43610
C345        C  0.74957575  0.75935074  0.79737607    -0.00020
C346        C  0.71631541  0.71949238  0.79923633    -0.11900
C347        C  0.72431133  0.67850686  0.83599578     0.02210
C348        C  0.76733755  0.67597709  0.87175881    -0.00110
C349        C  0.80254697  0.71424686  0.86717327    -0.11840
C350        C  0.79362902  0.75620299  0.83108525     0.02100
H351        H  0.68266859  0.72104518  0.77317442     0.15080
H352        H  0.83569244  0.71284110  0.89434079     0.15080
C353        C  0.82848013  0.79669323  0.83259456     0.36730
C354        C  0.68673502  0.64035363  0.83673759     0.36640
N355        N  0.85668070  0.82896867  0.83406717    -0.43610
N356        N  0.65627567  0.61021108  0.83756121    -0.43610
C357        C  0.78294716  0.45783100  0.86335636    -0.00020
C358        C  0.74068649  0.45438551  0.82725899    -0.11900
C359        C  0.73229885  0.41143828  0.79344943     0.02210
C360        C  0.76552925  0.37020950  0.79745253    -0.00110
C361        C  0.81033015  0.37573374  0.82839720    -0.11840
C362        C  0.82009546  0.41987935  0.85957976     0.02100
H363        H  0.71271311  0.48410635  0.82804988     0.15080
H364        H  0.83574179  0.34412830  0.83256197     0.15080
C365        C  0.86648566  0.42301387  0.89130187     0.36730
C366        C  0.68661499  0.40808878  0.76033177     0.36640
N367        N  0.90373198  0.42538133  0.91662244    -0.43610
N368        N  0.64996971  0.40522913  0.73390259    -0.43610
C369        C  0.60445746  0.83706878  0.12866867    -0.00020
C370        C  0.64911339  0.86136610  0.11722077    -0.11900
C371        C  0.69136184  0.85186665  0.15153654     0.02210
C372        C  0.68841032  0.81935453  0.20033515    -0.00110
C373        C  0.64227940  0.79939394  0.21550519    -0.11840
C374        C  0.60066078  0.80709447  0.17946073     0.02100
H375        H  0.65183932  0.88518672  0.07903715     0.15080
H376        H  0.63925063  0.77575837  0.25395442     0.15080
C377        C  0.55478181  0.78368419  0.19570119     0.36730
C378        C  0.73760684  0.87392089  0.13363579     0.36640
N379        N  0.51843729  0.76477633  0.21030281    -0.43610
N380        N  0.77437559  0.89205574  0.11891659    -0.43610
C381        C  0.38858775  0.82738433  0.12747189    -0.00020
C382        C  0.35243624  0.86520919  0.13723009    -0.11900
C383        C  0.31222315  0.85761020  0.17577025     0.02210
C384        C  0.31010686  0.81329917  0.20965916    -0.00110
C385        C  0.34872125  0.77773838  0.20342298    -0.11840
C386        C  0.38595834  0.78294789  0.16108574     0.02100
H387        H  0.35384936  0.89957326  0.11206278     0.15080
H388        H  0.34773799  0.74345107  0.22851699     0.15080
C389        C  0.41855131  0.74023065  0.15094244     0.36730
C390        C  0.27333194  0.89533909  0.17864547     0.36640
N391        N  0.44365143  0.70533617  0.14231527    -0.43610
N392        N  0.24286122  0.92636177  0.18084535    -0.43610
C393        C  0.30392745  0.83148055  0.79996737    -0.00020
C394        C  0.29779470  0.85351277  0.85584254    -0.11900
C395        C  0.33853919  0.86232294  0.89241227     0.02210
C396        C  0.38649214  0.84662113  0.87447353    -0.00110
C397        C  0.39309511  0.82546840  0.81810094    -0.11840
C398        C  0.35233278  0.81857697  0.78038624     0.02100
H399        H  0.26066546  0.86221672  0.87191508     0.15080
H400        H  0.42992237  0.81312322  0.80421183     0.15080
C401        C  0.36071003  0.79548525  0.72348986     0.36730
C402        C  0.32957136  0.88413482  0.94992046     0.36640
N403        N  0.36747407  0.77685692  0.67791310    -0.43610
N404        N  0.32210405  0.90183274  0.99583545    -0.43610
C405        C  0.68743965  0.83043978  0.79663830    -0.00020
C406        C  0.69506498  0.85802949  0.84858730    -0.11900
C407        C  0.65530630  0.87029449  0.88629818     0.02210
C408        C  0.60729461  0.85285216  0.87334288    -0.00110
C409        C  0.59902415  0.82902281  0.81897900    -0.11840
C410        C  0.63840587  0.81888461  0.77993780     0.02100
H411        H  0.73261506  0.86780360  0.86115049     0.15080
H412        H  0.56197449  0.81638170  0.80814538     0.15080
C413        C  0.62780798  0.79379397  0.72499545     0.36730
C414        C  0.66550271  0.89847526  0.93916672     0.36640
N415        N  0.61865124  0.77355601  0.68117508    -0.43610
N416        N  0.67467725  0.92214629  0.98049307    -0.43610
C417        C  0.21715626  0.67918739  0.12081916    -0.00020
C418        C  0.23836796  0.66642342  0.17526697    -0.11900
C419        C  0.25003456  0.70335843  0.21691084     0.02210
C420        C  0.24014520  0.75441837  0.20432470    -0.00110
C421        C  0.21621690  0.76676252  0.15121427    -0.11840
C422        C  0.20508866  0.72978947  0.10935437     0.02100
H423        H  0.24842420  0.62762384  0.18389624     0.15080
H424        H  0.20942772  0.80586476  0.14066662     0.15080
C425        C  0.18603208  0.74551381  0.05288726     0.36730
C426        C  0.27621052  0.68790828  0.26945161     0.36640
N427        N  0.17111185  0.75916172  0.00781908    -0.43610
N428        N  0.29765114  0.67498724  0.31108046    -0.43610
C429        C  0.22040225  0.44987921  0.09813316    -0.00020
C430        C  0.18758526  0.44149051  0.14472011    -0.11900
C431        C  0.18812185  0.39579147  0.17574650     0.02210
C432        C  0.22619954  0.35871040  0.16409098    -0.00110
C433        C  0.25293502  0.36568320  0.11069685    -0.11840
C434        C  0.25104274  0.41008012  0.07887045     0.02100
H435        H  0.15974007  0.47007371  0.15514164     0.15080
H436        H  0.27725018  0.33674898  0.09310059     0.15080
C437        C  0.27993658  0.41272930  0.02508358     0.36730
C438        C  0.14240157  0.38660272  0.20639674     0.36640
N439        N  0.30300610  0.41420476  0.98200139    -0.43610
N440        N  0.10373840  0.38226659  0.22815619    -0.43610
C441        C  0.22641466  0.45922309  0.86424828    -0.00020
C442        C  0.18776416  0.42426686  0.86141735    -0.11900
C443        C  0.19485092  0.37751880  0.83346866     0.02210
C444        C  0.24077940  0.36601490  0.80593145    -0.00110
C445        C  0.27694537  0.40308741  0.80318704    -0.11840
C446        C  0.27106898  0.44846730  0.83309834     0.02100
H447        H  0.15331666  0.43172875  0.88500949     0.15080
H448        H  0.31198767  0.39496871  0.78112072     0.15080
C449        C  0.31373320  0.48062730  0.83473299     0.36730
C450        C  0.15593034  0.34119955  0.83787470     0.36640
N451        N  0.34898675  0.50487576  0.83663155    -0.43610
N452        N  0.12420452  0.31266488  0.84220428    -0.43610
C453        C  0.21958340  0.68198673  0.86298554    -0.00020
C454        C  0.18843076  0.72452377  0.86794958    -0.11900
C455        C  0.19779727  0.76749472  0.83448203     0.02210
C456        C  0.23768095  0.76710121  0.79406427    -0.00110
C457        C  0.26458048  0.72258945  0.78417990    -0.11840
C458        C  0.25601053  0.68030017  0.81820367     0.02100
H459        H  0.15900888  0.72537223  0.90059263     0.15080
H460        H  0.29422257  0.72161239  0.75176906     0.15080
C461        C  0.28562193  0.63590907  0.80640818     0.36730
C462        C  0.16855409  0.81236670  0.84528397     0.36640
N463        N  0.30955215  0.60067325  0.79575826    -0.43610
N464        N  0.14519324  0.84838931  0.85415572    -0.43610
C465        C  0.38873096  0.28226688  0.13027499    -0.00020
C466        C  0.38384926  0.32045617  0.17281906    -0.11900
C467        C  0.33888942  0.32831238  0.20288146     0.02210
C468        C  0.29768563  0.29832421  0.18942092    -0.00110
C469        C  0.30368506  0.25827788  0.14966592    -0.11840
C470        C  0.34897199  0.24927893  0.12107998     0.02100
H471        H  0.41431975  0.34588571  0.18019183     0.15080
H472        H  0.27146740  0.23792677  0.13533916     0.15080
C473        C  0.35140734  0.20975259  0.07738325     0.36730
C474        C  0.33414679  0.37049807  0.24270863     0.36640
N475        N  0.35320734  0.17800380  0.04246637    -0.43610
N476        N  0.33015678  0.40441467  0.27443924    -0.43610
C477        C  0.69582223  0.31544283  0.20477888    -0.00020
C478        C  0.65460090  0.34804927  0.20760158    -0.11900
C479        C  0.61201062  0.33923222  0.17437564     0.02210
C480        C  0.61044563  0.29729968  0.13614360     0.00370
C481        C  0.65067662  0.26301113  0.13572882    -0.11840
C482        C  0.69343119  0.27193819  0.16936966     0.02100
H483        H  0.65626836  0.38149446  0.23481370     0.15080
H484        H  0.65001340  0.23080444  0.10641433     0.15080
C485        C  0.73540736  0.23796007  0.16343151     0.36730
C486        C  0.57080679  0.37433661  0.18001780     0.36640
N487        N  0.76897792  0.21063748  0.15823918    -0.43610
N488        N  0.53785480  0.40250152  0.18458354    -0.43610
C489        C  0.70756031  0.29861686  0.82409589    -0.00020
C490        C  0.70170222  0.32520920  0.87823471    -0.11900
C491        C  0.65875354  0.32307658  0.91235798     0.02210
C492        C  0.62012526  0.29148051  0.89538078    -0.00110
C493        C  0.62803131  0.25872728  0.84801126    -0.11840
C494        C  0.67196010  0.25999942  0.81414540     0.02100
H495        H  0.73039356  0.34967218  0.89435302     0.15080
H496        H  0.60052400  0.23032253  0.83912262     0.15080
C497        C  0.68159686  0.21419743  0.78243000     0.36730
C498        C  0.65627982  0.35275194  0.96591228     0.36640
N499        N  0.68606407  0.17508903  0.76060813    -0.43610
N500        N  0.65465348  0.37646996  0.00877379    -0.43610
C501        C  0.38902952  0.27857232  0.88827678    -0.00020
C502        C  0.34201323  0.27335467  0.91392979    -0.11900
C503        C  0.29874383  0.28176905  0.88099552     0.02210
C504        C  0.30214343  0.29504518  0.82090260    -0.00110
C505        C  0.34945168  0.29781260  0.79457376    -0.11840
C506        C  0.39276476  0.28982413  0.82786194     0.02100
H507        H  0.33911630  0.26549952  0.96071518     0.15080
H508        H  0.35268599  0.30936049  0.74900767     0.15080
C509        C  0.44063175  0.29530026  0.79995625     0.36730
C510        C  0.25141609  0.27878926  0.91077475     0.36640
N511        N  0.47909070  0.29951116  0.77772164    -0.43610
N512        N  0.21382383  0.27621737  0.93538405    -0.43610
loop_ 
_geom_bond_atom_site_label_1 
_geom_bond_atom_site_label_2 
_geom_bond_distance 
_geom_bond_site_symmetry_2 
_ccdc_geom_bond_type 
O1           Cu9   1.996       .  S
O1           C11   1.277       .  A
O2           Cu9   1.994   1_556  S
O2           C12   1.277       .  A
O3           Cu9   1.999   1_556  S
O3           C13   1.276       .  A
O4           Cu9   1.984       .  S
O4           C14   1.275       .  A
O5          Cu10   2.021       .  S
O5           C14   1.279       .  A
O6          Cu10   2.021   1_556  S
O6           C13   1.278       .  A
O7          Cu10   2.013   1_556  S
O7           C12   1.278       .  A
O8          Cu10   2.007       .  S
O8           C11   1.278       .  A
Cu9         Cu10   2.375       .  S
C11         C465   1.474       .  S
C12         C492   1.474       .  S
C13         C501   1.470       .  S
C14         C480   1.480       .  S
O15         Cu23   2.018       .  S
O15          C25   1.278       .  A
O16         Cu23   2.020   1_554  S
O16          C26   1.278       .  A
O17         Cu23   2.035   1_554  S
O17          C27   1.280       .  A
O18         Cu23   2.034       .  S
O18          C28   1.282       .  A
O19         Cu24   1.982       .  S
O19          C28   1.274       .  A
O20         Cu24   1.997   1_554  S
O20          C27   1.275       .  A
O21         Cu24   1.993   1_554  S
O21          C26   1.277       .  A
O22         Cu24   1.995       .  S
O22          C25   1.277       .  A
Cu23        Cu24   2.372       .  S
C25         C453   1.476       .  S
C26         C429   1.477       .  S
C27         C417   1.477       .  S
C28         C441   1.489       .  S
O29         Cu37   2.009   1_554  S
O29          C39   1.277       .  A
O30         Cu37   2.004       .  S
O30          C40   1.276       .  A
O31         Cu37   1.999       .  S
O31          C41   1.276       .  A
O32         Cu37   1.994   1_554  S
O32          C42   1.276       .  A
O33         Cu38   2.032       .  S
O33          C42   1.281       .  A
O34         Cu38   2.036   1_556  S
O34          C41   1.280       .  A
O35         Cu38   2.018   1_556  S
O35          C40   1.279       .  A
O36         Cu38   2.014       .  S
O36          C39   1.278       .  A
Cu37        Cu38   2.373   1_556  S
C39         C369   1.474       .  S
C40         C396   1.475       .  S
C41         C408   1.478       .  S
C42         C381   1.490       .  S
O43         Cu51   2.010       .  S
O43          C53   1.277       .  A
O44         Cu51   2.011   1_554  S
O44          C54   1.277       .  A
O45         Cu51   2.039   1_554  S
O45          C55   1.281       .  A
O46         Cu51   2.030       .  S
O46          C56   1.280       .  A
O47         Cu52   1.986       .  S
O47          C56   1.275       .  A
O48         Cu52   1.992   1_554  S
O48          C55   1.274       .  A
O49         Cu52   1.995   1_554  S
O49          C54   1.277       .  A
O50         Cu52   1.999       .  S
O50          C53   1.278       .  A
Cu51        Cu52   2.373       .  S
C53         C357   1.481       .  S
C54         C333   1.472       .  S
C55         C321   1.475       .  S
C56         C348   1.485       .  S
O57         Cu65   2.031       .  S
O57          C67   1.279       .  A
O58         Cu65   2.030       .  S
O58          C68   1.279       .  A
O59         Cu65   2.035       .  S
O59          C69   1.281       .  A
O60         Cu65   2.029       .  S
O60          C70   1.279   1_545  A
O61         Cu66   1.985       .  S
O61          C70   1.274   1_545  A
O62         Cu66   1.994       .  S
O62          C69   1.274       .  A
O63         Cu66   1.987       .  S
O63          C68   1.278       .  A
O64         Cu66   1.984       .  S
O64          C67   1.275       .  A
Cu65        Cu66   2.375       .  S
C67         C288   1.471       .  S
C68         C309   1.489   1_545  S
C69         C273   1.474       .  S
C70         C300   1.468       .  S
O71         Cu79   2.003       .  S
O71          C81   1.278       .  A
O72         Cu79   1.999   1_455  S
O72          C82   1.278       .  A
O73         Cu79   1.969       .  S
O73          C83   1.273       .  A
O74         Cu79   1.980   1_455  S
O74          C84   1.275       .  A
O75         Cu80   2.049   1_455  S
O75          C84   1.282       .  A
O76         Cu80   2.041       .  S
O76          C83   1.282       .  A
O77         Cu80   2.021   1_455  S
O77          C82   1.278       .  A
O78         Cu80   2.024       .  S
O78          C81   1.279       .  A
Cu79        Cu80   2.369       .  S
C81         C249   1.490       .  S
C82         C228   1.481       .  S
C83         C261   1.482       .  S
C84         C237   1.490       .  S
O85         Cu93   2.019       .  S
O85          C95   1.278   1_545  A
O86         Cu93   2.024       .  S
O86          C96   1.280       .  A
O87         Cu93   2.021       .  S
O87          C97   1.278   1_545  A
O88         Cu93   2.020       .  S
O88          C98   1.279       .  A
O89         Cu94   1.983       .  S
O89          C98   1.275       .  A
O90         Cu94   1.989       .  S
O90          C97   1.275   1_545  A
O91         Cu94   1.990       .  S
O91          C96   1.276       .  A
O92         Cu94   1.990       .  S
O92          C95   1.275   1_545  A
Cu93        Cu94   2.376       .  S
C95         C216   1.466       .  S
C96         C192   1.485       .  S
C97         C201   1.467       .  S
C98         C177   1.477       .  S
O99        Cu107   1.996   1_655  S
O99         C109   1.275       .  A
O100       Cu107   1.995       .  S
O100        C110   1.278       .  A
O101       Cu107   1.991   1_655  S
O101        C111   1.275       .  A
O102       Cu107   1.981       .  S
O102        C112   1.275       .  A
O103       Cu108   2.018       .  S
O103        C112   1.279       .  A
O104       Cu108   2.024   1_655  S
O104        C111   1.279       .  A
O105       Cu108   2.033       .  S
O105        C110   1.280       .  A
O106       Cu108   2.021   1_655  S
O106        C109   1.279       .  A
Cu107      Cu108   2.375       .  S
C109        C153   1.470       .  S
C110        C129   1.489       .  S
C111        C165   1.470       .  S
C112        C141   1.476       .  S
C113        C114   1.375       .  D
C113        C432   1.552       .  S
C113        C468   1.497       .  S
C114        C144   1.476       .  S
C114        C276   1.510       .  S
C115        C116   1.359       .  D
C115        C156   1.489       .  S
C115        C189   1.493       .  S
C116        C324   1.492       .  S
C116        C477   1.486       .  S
C117        C118   1.373       .  D
C117        C360   1.501       .  S
C117        C489   1.549       .  S
C118        C168   1.500       .  S
C118        C180   1.476       .  S
C119        C120   1.354       .  D
C119        C336   1.485       .  S
C119        C372   1.486       .  S
C120        C204   1.491       .  S
C120        C264   1.490       .  S
C121        C122   1.361       .  D
C121        C345   1.492       .  S
C121        C405   1.493       .  S
C122        C213   1.490       .  S
C122        C252   1.497       .  S
C123        C124   1.383       .  D
C123        C384   1.496       .  S
C123        C420   1.502       .  S
C124        C225   1.498       .  S
C124        C312   1.547       .  S
C125        C126   1.359       .  D
C125        C393   1.490       .  S
C125        C456   1.483       .  S
C126        C240   1.500       .  S
C126        C297   1.491       .  S
C127        C128   1.360       .  D
C127        C444   1.493       .  S
C127        C504   1.497       .  S
C128        C132   1.497       .  S
C128        C285   1.489       .  S
C129        C130   1.400       .  A
C129        C134   1.416       .  A
C130        C131   1.394       .  A
C130        H135   1.085       .  S
C131        C132   1.414       .  A
C131        C138   1.441       .  S
C132        C133   1.407       .  A
C133        C134   1.410       .  A
C133        H136   1.084       .  S
C134        C137   1.442       .  S
C137        N139   1.157       .  T
C138        N140   1.157       .  T
C141        C142   1.403       .  A
C141        C146   1.412       .  A
C142        C143   1.394       .  A
C142        H147   1.085       .  S
C143        C144   1.408       .  A
C143        C150   1.442       .  S
C144        C145   1.408       .  A
C145        C146   1.401       .  A
C145        H148   1.085       .  S
C146        C149   1.442       .  S
C149        N151   1.157       .  T
C150        N152   1.157       .  T
C153        C154   1.397       .  A
C153        C158   1.410       .  A
C154        C155   1.397       .  A
C154        H159   1.085       .  S
C155        C156   1.413       .  A
C155        C162   1.442       .  S
C156        C157   1.405       .  A
C157        C158   1.403       .  A
C157        H160   1.085       .  S
C158        C161   1.443       .  S
C161        N163   1.157       .  T
C162        N164   1.157       .  T
C165        C166   1.402       .  A
C165        C170   1.406       .  A
C166        C167   1.403       .  A
C166        H171   1.085       .  S
C167        C168   1.413       .  A
C167        C174   1.442       .  S
C168        C169   1.404       .  A
C169        C170   1.397       .  A
C169        H172   1.081       .  S
C170        C173   1.444       .  S
C173        N175   1.157       .  T
C174        N176   1.157       .  T
C177        C178   1.403       .  A
C177        C182   1.413       .  A
C178        C179   1.395       .  A
C178        H183   1.085       .  S
C179        C180   1.411       .  A
C179        C186   1.443       .  S
C180        C181   1.405       .  A
C181        C182   1.402       .  A
C181        H184   1.084       .  S
C182        C185   1.443       .  S
C185        N187   1.157       .  T
C186        N188   1.157       .  T
C189        C190   1.403       .  A
C189        C194   1.412       .  A
C190        C191   1.395       .  A
C190        H195   1.084       .  S
C191        C192   1.414       .  A
C191        C198   1.445       .  S
C192        C193   1.407       .  A
C193        C194   1.405       .  A
C193        H196   1.084       .  S
C194        C197   1.442       .  S
C197        N199   1.157       .  T
C198        N200   1.157       .  T
C201        C202   1.400       .  A
C201        C206   1.406       .  A
C202        C203   1.400       .  A
C202        H207   1.084       .  S
C203        C204   1.412       .  A
C203        C210   1.443       .  S
C204        C205   1.405       .  A
C205        C206   1.399       .  A
C205        H208   1.079       .  S
C206        C209   1.444   1_565  S
C209        N211   1.157       .  T
C210        N212   1.157       .  T
C213        C214   1.406       .  A
C213        C218   1.412       .  A
C214        C215   1.403       .  A
C214        H219   1.084       .  S
C215        C216   1.408       .  A
C215        C222   1.444   1_565  S
C216        C217   1.397       .  A
C217        C218   1.396       .  A
C217        H220   1.084       .  S
C218        C221   1.443       .  S
C221        N223   1.157       .  T
C222        N224   1.157       .  T
C225        C226   1.405       .  A
C225        C230   1.410       .  A
C226        C227   1.402       .  A
C226        H231   1.081       .  S
C227        C228   1.413       .  A
C227        C234   1.442       .  S
C228        C229   1.405       .  A
C229        C230   1.399       .  A
C229        H232   1.085       .  S
C230        C233   1.442       .  S
C233        N235   1.157       .  T
C234        N236   1.157       .  T
C237        C238   1.404       .  A
C237        C242   1.414       .  A
C238        C239   1.395       .  A
C238        H243   1.085       .  S
C239        C240   1.411       .  A
C239        C246   1.442       .  S
C240        C241   1.409       .  A
C241        C242   1.409       .  A
C241        H244   1.084       .  S
C242        C245   1.441       .  S
C245        N247   1.157       .  T
C246        N248   1.157       .  T
C249        C250   1.409       .  A
C249        C254   1.413       .  A
C250        C251   1.407       .  A
C250        H255   1.084       .  S
C251        C252   1.413       .  A
C251        C258   1.442       .  S
C252        C253   1.405       .  A
C253        C254   1.397       .  A
C253        H256   1.085       .  S
C254        C257   1.445       .  S
C257        N259   1.157       .  T
C258        N260   1.157       .  T
C261        C262   1.405       .  A
C261        C266   1.412       .  A
C262        C263   1.394       .  A
C262        H267   1.085       .  S
C263        C264   1.408       .  A
C263        C270   1.444       .  S
C264        C265   1.405       .  A
C265        C266   1.405       .  A
C265        H268   1.081       .  S
C266        C269   1.443       .  S
C269        N271   1.157       .  T
C270        N272   1.157       .  T
C273        C274   1.400       .  A
C273        C278   1.407       .  A
C274        C275   1.404       .  A
C274        H279   1.085       .  S
C275        C276   1.418       .  A
C275        C282   1.440       .  S
C276        C277   1.406       .  A
C277        C278   1.397       .  A
C277        H280   1.082       .  S
C278        C281   1.440       .  S
C281        N283   1.156       .  T
C282        N284   1.157       .  T
C285        C286   1.406       .  A
C285        C290   1.408       .  A
C286        C287   1.400       .  A
C286        H291   1.085       .  S
C287        C288   1.405       .  A
C287        C294   1.442       .  S
C288        C289   1.404       .  A
C289        C290   1.400       .  A
C289        H292   1.085       .  S
C290        C293   1.441       .  S
C293        N295   1.157       .  T
C294        N296   1.157       .  T
C297        C298   1.404       .  A
C297        C302   1.414       .  A
C298        C299   1.398       .  A
C298        H303   1.085       .  S
C299        C300   1.407       .  A
C299        C306   1.443       .  S
C300        C301   1.401       .  A
C301        C302   1.401       .  A
C301        H304   1.085   1_565  S
C302        C305   1.442       .  S
C305        N307   1.157       .  T
C306        N308   1.157       .  T
C309        C310   1.393       .  A
C309        C314   1.410       .  A
C310        C311   1.389       .  A
C310        H315   1.087       .  S
C311        C312   1.432       .  A
C311        C318   1.442       .  S
C312        C313   1.422       .  A
C313        C314   1.415       .  A
C313        H316   1.072       .  S
C314        C317   1.443       .  S
C317        N319   1.157       .  T
C318        N320   1.157       .  T
C321        C322   1.403       .  A
C321        C326   1.408       .  A
C322        C323   1.404       .  A
C322        H327   1.085       .  S
C323        C324   1.412       .  A
C323        C330   1.441       .  S
C324        C325   1.404       .  A
C325        C326   1.399       .  A
C325        H328   1.084       .  S
C326        C329   1.441       .  S
C329        N331   1.156   1_554  T
C330        N332   1.157       .  T
C333        C334   1.401       .  A
C333        C338   1.412       .  A
C334        C335   1.397       .  A
C334        H339   1.085       .  S
C335        C336   1.411       .  A
C335        C342   1.443       .  S
C336        C337   1.402       .  A
C337        C338   1.400       .  A
C337        H340   1.083       .  S
C338        C341   1.444       .  S
C341        N343   1.157       .  T
C342        N344   1.157       .  T
C345        C346   1.402       .  A
C345        C350   1.412       .  A
C346        C347   1.393       .  A
C346        H351   1.081       .  S
C347        C348   1.414       .  A
C347        C354   1.446       .  S
C348        C349   1.408       .  A
C349        C350   1.408       .  A
C349        H352   1.084       .  S
C350        C353   1.442       .  S
C353        N355   1.157       .  T
C354        N356   1.158       .  T
C357        C358   1.405       .  A
C357        C362   1.414       .  A
C358        C359   1.397       .  A
C358        H363   1.085       .  S
C359        C360   1.410       .  A
C359        C366   1.444       .  S
C360        C361   1.404       .  A
C361        C362   1.400       .  A
C361        H364   1.082       .  S
C362        C365   1.444       .  S
C365        N367   1.157       .  T
C366        N368   1.157       .  T
C369        C370   1.399       .  A
C369        C374   1.410       .  A
C370        C371   1.398       .  A
C370        H375   1.079       .  S
C371        C372   1.412       .  A
C371        C378   1.443       .  S
C372        C373   1.401       .  A
C373        C374   1.400       .  A
C373        H376   1.082       .  S
C374        C377   1.440       .  S
C377        N379   1.156       .  T
C378        N380   1.157       .  T
C381        C382   1.407       .  A
C381        C386   1.416       .  A
C382        C383   1.407       .  A
C382        H387   1.084       .  S
C383        C384   1.415       .  A
C383        C390   1.442       .  S
C384        C385   1.403       .  A
C385        C386   1.395       .  A
C385        H388   1.081       .  S
C386        C389   1.445       .  S
C389        N391   1.158       .  T
C390        N392   1.157       .  T
C393        C394   1.402       .  A
C393        C398   1.412       .  A
C394        C395   1.397       .  A
C394        H399   1.084       .  S
C395        C396   1.409       .  A
C395        C402   1.443       .  S
C396        C397   1.404       .  A
C397        C398   1.405       .  A
C397        H400   1.085       .  S
C398        C401   1.442       .  S
C401        N403   1.157       .  T
C402        N404   1.157       .  T
C405        C406   1.403       .  A
C405        C410   1.411       .  A
C406        C407   1.402       .  A
C406        H411   1.085       .  S
C407        C408   1.410       .  A
C407        C414   1.441       .  S
C408        C409   1.403       .  A
C409        C410   1.402       .  A
C409        H412   1.085       .  S
C410        C413   1.442       .  S
C413        N415   1.157       .  T
C414        N416   1.156       .  T
C417        C418   1.401       .  A
C417        C422   1.410       .  A
C418        C419   1.401       .  A
C418        H423   1.085       .  S
C419        C420   1.415       .  A
C419        C426   1.443       .  S
C420        C421   1.404       .  A
C421        C422   1.402       .  A
C421        H424   1.085       .  S
C422        C425   1.441       .  S
C425        N427   1.156       .  T
C426        N428   1.157       .  T
C429        C430   1.396       .  A
C429        C434   1.402       .  A
C430        C431   1.411       .  A
C430        H435   1.086       .  S
C431        C432   1.436       .  A
C431        C438   1.437       .  S
C432        C433   1.421       .  A
C433        C434   1.391       .  A
C433        H436   1.079       .  S
C434        C437   1.447       .  S
C437        N439   1.157   1_554  T
C438        N440   1.158       .  T
C441        C442   1.409       .  A
C441        C446   1.417       .  A
C442        C443   1.407       .  A
C442        H447   1.084       .  S
C443        C444   1.412       .  A
C443        C450   1.442       .  S
C444        C445   1.400       .  A
C445        C446   1.392       .  A
C445        H448   1.085       .  S
C446        C449   1.444       .  S
C449        N451   1.157       .  T
C450        N452   1.157       .  T
C453        C454   1.405       .  A
C453        C458   1.410       .  A
C454        C455   1.404       .  A
C454        H459   1.082       .  S
C455        C456   1.410       .  A
C455        C462   1.442       .  S
C456        C457   1.399       .  A
C457        C458   1.392       .  A
C457        H460   1.083       .  S
C458        C461   1.441       .  S
C461        N463   1.156       .  T
C462        N464   1.157       .  T
C465        C466   1.404       .  A
C465        C470   1.411       .  A
C466        C467   1.400       .  A
C466        H471   1.085       .  S
C467        C468   1.410       .  A
C467        C474   1.444       .  S
C468        C469   1.402       .  A
C469        C470   1.396       .  A
C469        H472   1.079       .  S
C470        C473   1.444       .  S
C473        N475   1.157       .  T
C474        N476   1.157       .  T
C477        C478   1.400       .  A
C477        C482   1.411       .  A
C478        C479   1.394       .  A
C478        H483   1.084       .  S
C479        C480   1.414       .  A
C479        C486   1.445       .  S
C480        C481   1.406       .  A
C481        C482   1.403       .  A
C481        H484   1.084       .  S
C482        C485   1.443       .  S
C485        N487   1.157       .  T
C486        N488   1.157       .  T
C489        C490   1.422       .  A
C489        C494   1.435       .  A
C490        C491   1.391       .  A
C490        H495   1.082       .  S
C491        C492   1.402       .  A
C491        C498   1.447       .  S
C492        C493   1.395       .  A
C493        C494   1.409       .  A
C493        H496   1.086       .  S
C494        C497   1.435       .  S
C497        N499   1.158       .  T
C498        N500   1.157   1_556  T
C501        C502   1.400       .  A
C501        C506   1.407       .  A
C502        C503   1.399       .  A
C502        H507   1.085       .  S
C503        C504   1.412       .  A
C503        C510   1.443       .  S
C504        C505   1.408       .  A
C505        C506   1.403       .  A
C505        H508   1.083       .  S
C506        C509   1.443       .  S
C509        N511   1.157       .  T
C510        N512   1.157       .  T
