geometry optimzed in LAMMPS
_audit_creation_date              2020-12-01 
_audit_creation_method            'lammps2cif' 
_symmetry_space_group_name_H-M    'P1' 
_symmetry_Int_Tables_number       1 
_symmetry_cell_setting            triclinic 
loop_ 
_symmetry_equiv_pos_as_xyz 
  x,y,z 
_cell_length_a                    39.19084431 
_cell_length_b                    39.20746024920138 
_cell_length_c                    43.47971073228973 
_cell_angle_alpha                 89.96855014563033 
_cell_angle_beta                  90.13476566217636 
_cell_angle_gamma                 89.61917288354658 
loop_ 
_atom_site_label 
_atom_site_type_symbol 
_atom_site_fract_x 
_atom_site_fract_y 
_atom_site_fract_z 
_atom_site_charge 
O1          O  0.35410434  0.82910399  0.99939123    -0.74400
O2          O  0.35405736  0.92671124  0.49759694    -0.74400
O3          O  0.35402528  0.87697597  0.45432756    -0.74500
O4          O  0.35461239  0.87839703  0.04241156    -0.74500
O5          O  0.41141195  0.87773512  0.04218897    -0.74500
O6          O  0.41085474  0.87697285  0.45432073    -0.74400
O7          O  0.41091442  0.92661796  0.99788346    -0.74400
O8          O  0.41093521  0.82865314  0.49886980    -0.74500
Ni9        Ni  0.35216503  0.87786927  0.49840631     1.25400
Ni10       Ni  0.41303487  0.87755735  0.49828045     1.25400
C11         C  0.38246891  0.81274761  0.49994945     0.87800
C12         C  0.38242420  0.94286520  0.99769513     0.87700
C13         C  0.38245182  0.87630753  0.43979583     0.87700
C14         C  0.38317592  0.87734241  0.05682946     0.87900
O15         O  0.40646243  0.87291373  0.29246859    -0.74400
O16         O  0.40669862  0.87385394  0.20441446    -0.74400
O17         O  0.40704247  0.92211305  0.24905589    -0.74500
O18         O  0.40651122  0.82450915  0.24788801    -0.74500
O19         O  0.34957504  0.82514081  0.24840469    -0.74500
O20         O  0.35023167  0.92294315  0.24831447    -0.74400
O21         O  0.34990245  0.87407191  0.20435040    -0.74400
O22         O  0.34964123  0.87427032  0.29215172    -0.74500
Ni23       Ni  0.40872107  0.87328039  0.24845009     1.25400
Ni24       Ni  0.34781547  0.87408252  0.24826389     1.25400
C25         C  0.37794122  0.87418176  0.30682107     0.87800
C26         C  0.37823443  0.87445169  0.18983796     0.87700
C27         C  0.37879729  0.93866736  0.24920903     0.87700
C28         C  0.37799230  0.80881269  0.24798839     0.87900
O29         O  0.34127825  0.15606708  0.45247415    -0.74400
O30         O  0.33966946  0.15321743  0.04043027    -0.74400
O31         O  0.33834864  0.20377321  0.49737458    -0.74500
O32         O  0.34277011  0.10575428  0.99524885    -0.74500
O33         O  0.39948770  0.10790216  0.49728006    -0.74500
O34         O  0.39514119  0.20549955  0.99731223    -0.74400
O35         O  0.39620590  0.15637147  0.04131165    -0.74400
O36         O  0.39809586  0.15694408  0.45370151    -0.74500
Ni37       Ni  0.33845443  0.15465748  0.49639760     1.25400
Ni38       Ni  0.39920561  0.15680562  0.99750673     1.25400
C39         C  0.37002645  0.15692734  0.43862398     0.87800
C40         C  0.36770197  0.15406621  0.05553047     0.87700
C41         C  0.36614712  0.22072376  0.99702304     0.87700
C42         C  0.37188979  0.09067107  0.99579872     0.87900
O43         O  0.40782518  0.19891044  0.24702422    -0.74400
O44         O  0.40436674  0.10158413  0.24836538    -0.74400
O45         O  0.40504211  0.14949491  0.20360993    -0.74500
O46         O  0.40655152  0.15108113  0.29155024    -0.74500
O47         O  0.34977988  0.15335369  0.29189574    -0.74500
O48         O  0.34846991  0.15148902  0.20423252    -0.74400
O49         O  0.34760815  0.10352132  0.24874077    -0.74400
O50         O  0.35103271  0.20135005  0.24731936    -0.74500
Ni51       Ni  0.40796210  0.15016206  0.24758660     1.25400
Ni52       Ni  0.34718783  0.15251684  0.24806813     1.25400
C53         C  0.38008357  0.21623256  0.24743898     0.87800
C54         C  0.37556586  0.08642021  0.24849635     0.87700
C55         C  0.37651693  0.15004351  0.18923104     0.87700
C56         C  0.37833624  0.15255077  0.30624221     0.87900
O57         O  0.82489703  0.56652280  0.04295208    -0.74400
O58         O  0.82904804  0.55848481  0.45467449    -0.74400
O59         O  0.87600487  0.56531832  0.00035337    -0.74500
O60         O  0.77832618  0.55888784  0.49664665    -0.74500
O61         O  0.77484041  0.61533672  0.99214507    -0.74500
O62         O  0.87245624  0.62201045  0.49723429    -0.74400
O63         O  0.82637832  0.61516880  0.45112498    -0.74400
O64         O  0.82095411  0.62303466  0.03880473    -0.74500
Ni65       Ni  0.82723291  0.56028511  0.99894136     1.25400
Ni66       Ni  0.82351232  0.62085218  0.49477280     1.25400
C67         C  0.82195393  0.59608270  0.05542069     0.87800
C68         C  0.82803412  0.58576049  0.43840019     0.87700
C69         C  0.89030336  0.59460048  0.99918012     0.87700
C70         C  0.76039712  0.58602059  0.99280908     0.87900
O71         O  0.87222300  0.62828533  0.24639142    -0.74400
O72         O  0.77476885  0.62785853  0.25118162    -0.74400
O73         O  0.82637873  0.62374594  0.29303682    -0.74500
O74         O  0.82123467  0.63159265  0.20481671    -0.74500
O75         O  0.82090814  0.57489001  0.20153095    -0.74500
O76         O  0.82672427  0.56706704  0.28912809    -0.74400
O77         O  0.77488398  0.57107040  0.24801205    -0.74400
O78         O  0.87269861  0.57164660  0.24251861    -0.74500
Ni79       Ni  0.82357048  0.62989680  0.24906674     1.25400
Ni80       Ni  0.82380063  0.56916600  0.24516571     1.25400
C81         C  0.88851458  0.60016181  0.24290423     0.87800
C82         C  0.75877911  0.59951998  0.25026312     0.87700
C83         C  0.82767828  0.59410584  0.30556684     0.87700
C84         C  0.82085617  0.60427583  0.18862949     0.87900
O85         O  0.05432410  0.56957591  0.49498817    -0.74400
O86         O  0.15203214  0.56942957  0.99615145    -0.74400
O87         O  0.10263570  0.56854733  0.03966149    -0.74500
O88         O  0.10364075  0.57064892  0.45164424    -0.74500
O89         O  0.10278951  0.62741497  0.45284331    -0.74500
O90         O  0.10311579  0.62538397  0.04079522    -0.74400
O91         O  0.15193179  0.62614499  0.49685193    -0.74400
O92         O  0.05377804  0.62637941  0.99691246    -0.74500
Ni93       Ni  0.10319037  0.56755752  0.99558020     1.25400
Ni94       Ni  0.10288139  0.62840238  0.99689183     1.25400
C95         C  0.03793466  0.59789294  0.99559783     0.87800
C96         C  0.16816957  0.59768786  0.99644828     0.87700
C97         C  0.10265173  0.59661540  0.05470599     0.87700
C98         C  0.10339936  0.59945325  0.43769093     0.87900
O99         O  0.10374748  0.62776988  0.20224735    -0.74400
O100        O  0.10017035  0.62652461  0.29028153    -0.74400
O101        O  0.15062285  0.62559950  0.24813938    -0.74500
O102        O  0.05313368  0.62897523  0.24468407    -0.74500
O103        O  0.05131548  0.57218073  0.24416897    -0.74500
O104        O  0.14919123  0.56873495  0.24683546    -0.74400
O105        O  0.09893206  0.56977685  0.28950078    -0.74400
O106        O  0.10151541  0.57096399  0.20158721    -0.74500
Ni107      Ni  0.10195356  0.62924079  0.24632044     1.25400
Ni108      Ni  0.10018011  0.56838000  0.24549282     1.25400
C109        C  0.10327509  0.59954458  0.18744212     0.87800
C110        C  0.09905573  0.59787464  0.30445455     0.87700
C111        C  0.16591101  0.59666798  0.24835053     0.87700
C112        C  0.03612214  0.60123757  0.24422882     0.87900
O113        O  0.50487708  0.15040352  0.04775286    -0.74400
O114        O  0.50248200  0.14995504  0.45942986    -0.74400
O115        O  0.50303907  0.10115111  0.00357212    -0.74500
O116        O  0.50393742  0.19893361  0.50332077    -0.74500
O117        O  0.56048643  0.19805668  0.00236896    -0.74500
O118        O  0.55992273  0.10018988  0.50280443    -0.74400
O119        O  0.55928569  0.14888908  0.45869558    -0.74400
O120        O  0.56171780  0.14933609  0.04649949    -0.74500
Ni121      Ni  0.50153138  0.15010009  0.00358869     1.25400
Ni122      Ni  0.56236676  0.14907788  0.50256553     1.25400
C123        C  0.53378115  0.15033432  0.06162867     0.87800
C124        C  0.53062933  0.14954677  0.44450290     0.87700
C125        C  0.53128634  0.08457689  0.00280688     0.87700
C126        C  0.53229714  0.21487776  0.50272547     0.87900
O127        O  0.51135546  0.15118562  0.29613970    -0.74400
O128        O  0.51389407  0.15216510  0.20824188    -0.74400
O129        O  0.50995253  0.10285987  0.25160544    -0.74500
O130        O  0.51559084  0.20042174  0.25276536    -0.74500
O131        O  0.57219801  0.19662575  0.25385707    -0.74500
O132        O  0.56656158  0.09914054  0.25300897    -0.74400
O133        O  0.57061519  0.14803998  0.20937059    -0.74400
O134        O  0.56801015  0.14748387  0.29756239    -0.74500
Ni135      Ni  0.51069170  0.15178793  0.25213364     1.25400
Ni136      Ni  0.57137357  0.14772248  0.25351551     1.25400
C137        C  0.53924114  0.14894612  0.31142912     0.87800
C138        C  0.54256718  0.14994015  0.19429316     0.87700
C139        C  0.53729346  0.08480662  0.25180173     0.87700
C140        C  0.54489977  0.21473016  0.25377297     0.87900
O141        O  0.56706455  0.87340406  0.45423645    -0.74400
O142        O  0.56669245  0.87128225  0.04213603    -0.74400
O143        O  0.56735131  0.82358846  0.49726868    -0.74500
O144        O  0.56590845  0.92139617  0.99946042    -0.74500
O145        O  0.50901125  0.92081058  0.49843704    -0.74500
O146        O  0.51053610  0.82322428  0.99720691    -0.74400
O147        O  0.50988734  0.87143713  0.04177961    -0.74400
O148        O  0.51024662  0.87269013  0.45368403    -0.74500
Ni149      Ni  0.56877343  0.87247032  0.49823605     1.25400
Ni150      Ni  0.50790956  0.87205241  0.99773637     1.25400
C151        C  0.53883574  0.87279836  0.43943186     0.87800
C152        C  0.53827418  0.87082083  0.05647920     0.87700
C153        C  0.53909383  0.80723246  0.99715004     0.87700
C154        C  0.53717963  0.93718991  0.99976529     0.87900
O155        O  0.56288525  0.87064631  0.20377192    -0.74400
O156        O  0.56388854  0.87153516  0.29192357    -0.74400
O157        O  0.56275204  0.82241304  0.24835705    -0.74500
O158        O  0.56467606  0.91960641  0.24758814    -0.74500
O159        O  0.50794099  0.92141255  0.24790264    -0.74500
O160        O  0.50590738  0.82344389  0.24909034    -0.74400
O161        O  0.50705204  0.87327743  0.29214373    -0.74400
O162        O  0.50607611  0.87198293  0.20431884    -0.74500
Ni163      Ni  0.56555782  0.87095762  0.24783863     1.25400
Ni164      Ni  0.50469430  0.87253487  0.24829986     1.25400
C165        C  0.53422091  0.87157974  0.18950178     0.87800
C166        C  0.53552945  0.87313223  0.30651962     0.87700
C167        C  0.53419545  0.80682629  0.24937246     0.87700
C168        C  0.53681266  0.93666740  0.24835228     0.87900
O169        O  0.37855140  0.48116098  0.01937243    -0.74400
O170        O  0.37361630  0.38371746  0.01663941    -0.74400
O171        O  0.42497188  0.42981964  0.01756489    -0.74500
O172        O  0.32741053  0.43547069  0.01836476    -0.74500
O173        O  0.32678184  0.43652595  0.46699882    -0.74500
O174        O  0.42490421  0.43155611  0.46613080    -0.74400
O175        O  0.37355775  0.38510910  0.46534574    -0.74400
O176        O  0.37784395  0.48288668  0.46793807    -0.74500
Ni177      Ni  0.37619207  0.43241629  0.01976529     1.25400
Ni178      Ni  0.37578052  0.43406046  0.46474082     1.25400
C179        C  0.37868821  0.49804359  0.49405186     0.87800
C180        C  0.37273630  0.36823233  0.99068652     0.87700
C181        C  0.44102051  0.43007255  0.99192528     0.87700
C182        C  0.31099699  0.43742527  0.99293966     0.87900
O183        O  0.42949176  0.42865197  0.22665742    -0.74400
O184        O  0.33133801  0.43110153  0.22536344    -0.74400
O185        O  0.38106171  0.47831941  0.22684047    -0.74500
O186        O  0.37964585  0.38108311  0.22414477    -0.74500
O187        O  0.37930152  0.37894555  0.27533007    -0.74500
O188        O  0.38033501  0.47694685  0.27814883    -0.74400
O189        O  0.33135642  0.42928854  0.27641065    -0.74400
O190        O  0.42842909  0.42702656  0.27795710    -0.74500
Ni191      Ni  0.38044498  0.42979536  0.22390765     1.25400
Ni192      Ni  0.37983844  0.42792105  0.27877278     1.25400
C193        C  0.44498280  0.42768053  0.25269089     0.87800
C194        C  0.31509792  0.43101521  0.25098913     0.87700
C195        C  0.38052312  0.49364607  0.25277752     0.87700
C196        C  0.37912203  0.36389557  0.24911478     0.87900
O197        O  0.37879958  0.55243370  0.47008561    -0.74400
O198        O  0.38129750  0.64991674  0.47320109    -0.74400
O199        O  0.42864387  0.59962410  0.47013029    -0.74500
O200        O  0.33113490  0.60246323  0.47321872    -0.74500
O201        O  0.33302956  0.60098051  0.02453426    -0.74500
O202        O  0.43101179  0.59779331  0.02145974    -0.74400
O203        O  0.38336425  0.64832447  0.02444285    -0.74400
O204        O  0.38076801  0.55054189  0.02146994    -0.74500
Ni205      Ni  0.37986274  0.60124186  0.46987320     1.25400
Ni206      Ni  0.38209701  0.59935802  0.02484065     1.25400
C207        C  0.37949151  0.53545515  0.99533970     0.87800
C208        C  0.38321778  0.66518931  0.99918092     0.87700
C209        C  0.44587818  0.59801173  0.49515130     0.87700
C210        C  0.31599028  0.60200767  0.49928946     0.87900
O211        O  0.42677731  0.59577767  0.28023293    -0.74400
O212        O  0.32883919  0.59534880  0.27662126    -0.74400
O213        O  0.37848363  0.54688053  0.27874716    -0.74500
O214        O  0.37734308  0.64453754  0.27850883    -0.74500
O215        O  0.37930682  0.64485362  0.22747793    -0.74500
O216        O  0.38047834  0.54714131  0.22745618    -0.74400
O217        O  0.33118618  0.59571709  0.22557004    -0.74400
O218        O  0.42858706  0.59596477  0.22894163    -0.74500
Ni219      Ni  0.37776240  0.59569150  0.28037159     1.25400
Ni220      Ni  0.37996142  0.59595073  0.22556259     1.25400
C221        C  0.44371346  0.59556745  0.25504817     0.87800
C222        C  0.31376529  0.59506892  0.25037063     0.87700
C223        C  0.37984963  0.53099307  0.25307879     0.87700
C224        C  0.37795176  0.66100255  0.25310327     0.87900
O225        O  0.49378546  0.43020682  0.01853101    -0.74400
O226        O  0.59124702  0.42769426  0.02246727    -0.74400
O227        O  0.54387568  0.47771198  0.01784094    -0.74500
O228        O  0.54117607  0.38009976  0.02282998    -0.74500
O229        O  0.54381284  0.37704165  0.47150769    -0.74500
O230        O  0.54596167  0.47477838  0.46651458    -0.74400
O231        O  0.59403249  0.42475097  0.47146242    -0.74400
O232        O  0.49571089  0.42713211  0.46718026    -0.74500
Ni233      Ni  0.54243598  0.42902425  0.02218664     1.25400
Ni234      Ni  0.54497967  0.42577408  0.46730781     1.25400
C235        C  0.47866421  0.42902538  0.49230217     0.87800
C236        C  0.60898759  0.42633151  0.99777380     0.87700
C237        C  0.54545368  0.49231056  0.99149377     0.87700
C238        C  0.54192633  0.36260196  0.99798459     0.87900
O239        O  0.49728899  0.42688809  0.28021945    -0.74400
O240        O  0.59500996  0.42733612  0.28419044    -0.74400
O241        O  0.54570979  0.47599241  0.28333375    -0.74500
O242        O  0.54654163  0.37806164  0.28144898    -0.74500
O243        O  0.54816028  0.37923003  0.23017808    -0.74500
O244        O  0.54792941  0.47683965  0.23205998    -0.74400
O245        O  0.59686721  0.42819547  0.23305960    -0.74400
O246        O  0.49941801  0.42818470  0.22893557    -0.74500
Ni247      Ni  0.54605003  0.42698720  0.28415620     1.25400
Ni248      Ni  0.54822890  0.42812466  0.22926418     1.25400
C249        C  0.48234085  0.42753627  0.25395181     0.87800
C250        C  0.61212276  0.42802682  0.25910312     0.87700
C251        C  0.54681714  0.49246636  0.25791235     0.87700
C252        C  0.54685118  0.36260144  0.25549253     0.87900
O253        O  0.54987171  0.54644497  0.01521287    -0.74400
O254        O  0.54989085  0.64390562  0.01419245    -0.74400
O255        O  0.50131274  0.59584104  0.01796336    -0.74500
O256        O  0.59916796  0.59463924  0.01034944    -0.74500
O257        O  0.59442425  0.59262660  0.45932387    -0.74500
O258        O  0.49717969  0.59594403  0.46670442    -0.74400
O259        O  0.54646202  0.64363562  0.46298950    -0.74400
O260        O  0.54468172  0.54527959  0.46402197    -0.74500
Ni261      Ni  0.55036247  0.59521503  0.01622494     1.25400
Ni262      Ni  0.54558024  0.59438822  0.46142472     1.25400
C263        C  0.54681060  0.52976699  0.48996782     0.87800
C264        C  0.54748268  0.65988450  0.98862819     0.87700
C265        C  0.48320979  0.59648376  0.99336453     0.87700
C266        C  0.61294247  0.59337819  0.98356190     0.87900
O267        O  0.49758040  0.59391114  0.23045187    -0.74400
O268        O  0.59526085  0.59445074  0.23183996    -0.74400
O269        O  0.54699450  0.54544260  0.23208612    -0.74500
O270        O  0.54561197  0.64263451  0.22972924    -0.74500
O271        O  0.54451845  0.64460413  0.28092026    -0.74500
O272        O  0.54631061  0.54647308  0.28338973    -0.74400
O273        O  0.59455526  0.59611353  0.28295841    -0.74400
O274        O  0.49669269  0.59522374  0.28176043    -0.74500
Ni275      Ni  0.54642170  0.59401407  0.22925609     1.25400
Ni276      Ni  0.54554748  0.59561989  0.28413698     1.25400
C277        C  0.48110218  0.59483703  0.25585281     0.87800
C278        C  0.61116270  0.59546130  0.25763609     0.87700
C279        C  0.54673067  0.52990608  0.25795283     0.87700
C280        C  0.54464329  0.65971017  0.25473004     0.87900
O281        O  0.10195241  0.47304377  0.04444473    -0.74400
O282        O  0.09674408  0.47221886  0.45626945    -0.74400
O283        O  0.05021017  0.47468336  0.00296975    -0.74500
O284        O  0.14810442  0.47056014  0.49790027    -0.74500
O285        O  0.14620489  0.41418051  0.99809592    -0.74500
O286        O  0.04875959  0.41760718  0.50321627    -0.74400
O287        O  0.09477377  0.41541909  0.45678960    -0.74400
O288        O  0.10009477  0.41629091  0.04471015    -0.74500
Ni289      Ni  0.09924427  0.47485749  0.00038348     1.25400
Ni290      Ni  0.09741312  0.41372041  0.50074677     1.25400
C291        C  0.10173574  0.44473381  0.05913328     0.87800
C292        C  0.09528101  0.44364256  0.44201788     0.87700
C293        C  0.03332277  0.44683892  0.00421926     0.87700
C294        C  0.16328924  0.44151782  0.49671122     0.87900
O295        O  0.10564913  0.46876578  0.29454085    -0.74400
O296        O  0.09953963  0.46821494  0.20680507    -0.74400
O297        O  0.05362272  0.46734232  0.25360237    -0.74500
O298        O  0.15142707  0.46883518  0.24784293    -0.74500
O299        O  0.15205655  0.41192831  0.24910611    -0.74500
O300        O  0.05495281  0.41079590  0.25344908    -0.74400
O301        O  0.10100410  0.41141003  0.20695104    -0.74400
O302        O  0.10560448  0.41195638  0.29532084    -0.74500
Ni303      Ni  0.10251192  0.47031976  0.25065222     1.25400
Ni304      Ni  0.10349535  0.40950304  0.25115005     1.25400
C305        C  0.10605311  0.44065788  0.30945133     0.87800
C306        C  0.09948605  0.43980009  0.19233864     0.87700
C307        C  0.03800721  0.43865407  0.25482919     0.87700
C308        C  0.16772540  0.44039855  0.24775105     0.87900
O309        O  0.82232393  0.40572291  0.47224545    -0.74400
O310        O  0.82330182  0.40864783  0.06016893    -0.74400
O311        O  0.77380666  0.40454375  0.51618735    -0.74500
O312        O  0.87147859  0.40999321  0.01539643    -0.74500
O313        O  0.86842189  0.46652950  0.51467924    -0.74500
O314        O  0.77065991  0.46139202  0.01426778    -0.74400
O315        O  0.81932739  0.46536437  0.05894315    -0.74400
O316        O  0.81989592  0.46248445  0.47076590    -0.74500
Ni317      Ni  0.82279872  0.40529544  0.01618191     1.25400
Ni318      Ni  0.81934559  0.46609017  0.01476555     1.25400
C319        C  0.82117606  0.43360553  0.45698860     0.87800
C320        C  0.82189814  0.43740052  0.07406383     0.87700
C321        C  0.75621658  0.43220680  0.01430440     0.87700
C322        C  0.88598032  0.43912190  0.01387113     0.87900
O323        O  0.82495465  0.41219524  0.22095732    -0.74400
O324        O  0.82568964  0.40985847  0.30904307    -0.74400
O325        O  0.77656824  0.40918103  0.26513181    -0.74500
O326        O  0.87401686  0.41290977  0.26486658    -0.74500
O327        O  0.87173460  0.46943725  0.26514642    -0.74500
O328        O  0.77399599  0.46596937  0.26738098    -0.74400
O329        O  0.82426537  0.46664055  0.31020128    -0.74400
O330        O  0.82131857  0.46894800  0.22213035    -0.74500
Ni331      Ni  0.82539144  0.40902499  0.26497216     1.25400
Ni332      Ni  0.82275336  0.46978497  0.26626151     1.25400
C333        C  0.82259815  0.44092935  0.20704282     0.87800
C334        C  0.82550642  0.43790910  0.32414608     0.87700
C335        C  0.75924584  0.43694010  0.26647084     0.87700
C336        C  0.88923772  0.44175963  0.26479477     0.87900
C337        C  0.84313249  0.45722181  0.40850726    -0.05700
C338        C  0.82255472  0.43290076  0.42298856     0.00200
C339        C  0.80432852  0.40904094  0.40484980    -0.08400
C340        C  0.80570816  0.41201805  0.37264002    -0.05800
C341        C  0.82574440  0.43681929  0.35818279     0.00200
C342        C  0.84597032  0.45892062  0.37635641    -0.08300
C343        C  0.87233892  0.48227198  0.36214693     0.62100
H344        H  0.85772459  0.47451672  0.42274434     0.12800
H345        H  0.79115665  0.39476356  0.35834860     0.12800
C346        C  0.78348241  0.38060826  0.41911126     0.62300
F347        F  0.89294512  0.49723346  0.38418633    -0.22900
F348        F  0.85650142  0.50808889  0.34573952    -0.20200
F349        F  0.89310480  0.46339593  0.34280929    -0.19900
F350        F  0.76062001  0.39393556  0.44009663    -0.19900
F351        F  0.80500451  0.35769429  0.43377803    -0.20200
F352        F  0.76506225  0.36278286  0.39725618    -0.22900
C353        C  0.84798696  0.42353998  0.15758494    -0.05700
C354        C  0.82211457  0.44145785  0.17302461     0.00200
C355        C  0.79618018  0.45822870  0.15586348    -0.08400
C356        C  0.79739014  0.45673710  0.12352567    -0.05800
C357        C  0.82299286  0.43838529  0.10808784     0.00200
C358        C  0.84908748  0.42186168  0.12527814    -0.08300
C359        C  0.87864520  0.40359329  0.10966606     0.62100
H360        H  0.86754242  0.41092258  0.17117502     0.12800
H361        H  0.77794952  0.46950135  0.10998589     0.12800
C362        C  0.76656696  0.47624961  0.17156293     0.62300
F363        F  0.90334332  0.39329393  0.13058304    -0.22900
F364        F  0.89389199  0.42520725  0.08870788    -0.20200
F365        F  0.86700039  0.37489300  0.09459783    -0.19900
F366        F  0.77817369  0.50457558  0.18722175    -0.19900
F367        F  0.75114861  0.45426463  0.19203558    -0.20200
F368        F  0.74200724  0.48692424  0.15069225    -0.22900
C369        C  0.98331408  0.46938702  0.26368127    -0.05700
C370        C  0.99998204  0.43807982  0.25826900     0.00200
C371        C  0.97996718  0.40786520  0.25671212    -0.08400
C372        C  0.94428571  0.41082427  0.25911642    -0.05800
C373        C  0.92750102  0.44224864  0.26369003     0.00200
C374        C  0.94764999  0.47215641  0.26678558    -0.08300
C375        C  0.93226007  0.50712952  0.27297147     0.62100
H376        H  0.99861113  0.49216804  0.26545983     0.12800
H377        H  0.92902879  0.38805248  0.25719790     0.12800
C378        C  0.99535297  0.37233518  0.25262729     0.62300
F379        F  0.95687678  0.53195972  0.27672876    -0.22900
F380        F  0.91304389  0.50648919  0.29952101    -0.20200
F381        F  0.91193569  0.51652525  0.24846167    -0.19900
F382        F  0.01674086  0.36482812  0.27710672    -0.19900
F383        F  0.01330731  0.37064941  0.22533466    -0.20200
F384        F  0.97072859  0.34717960  0.25162285    -0.22900
C385        C  0.12293526  0.46122743  0.39377155    -0.05700
C386        C  0.09651085  0.44317696  0.40801167     0.00200
C387        C  0.07332084  0.42430196  0.38976495    -0.08400
C388        C  0.07799204  0.42362849  0.35767666    -0.05800
C389        C  0.10460221  0.44143275  0.34345329     0.00200
C390        C  0.12768807  0.46046293  0.36170336    -0.08300
C391        C  0.15831028  0.47822355  0.34774023     0.62100
H392        H  0.14048400  0.47528704  0.40820162     0.12800
H393        H  0.06040029  0.40962212  0.34324776     0.12800
C394        C  0.04287625  0.40634378  0.40384293     0.62300
F395        F  0.17938407  0.49200593  0.37005119    -0.22900
F396        F  0.14780485  0.50441918  0.32861936    -0.20200
F397        F  0.17728114  0.45495756  0.33102437    -0.19900
F398        F  0.02410639  0.42932442  0.42114392    -0.19900
F399        F  0.05376767  0.37980727  0.42242622    -0.20200
F400        F  0.02151790  0.39289928  0.38158429    -0.22900
C401        C  0.07993982  0.42137270  0.10796532    -0.05700
C402        C  0.10180099  0.44447236  0.09326342     0.00200
C403        C  0.12282156  0.46598902  0.11132419    -0.08400
C404        C  0.12058036  0.46388684  0.14356100    -0.05800
C405        C  0.09917139  0.44037631  0.15823431     0.00200
C406        C  0.07809025  0.41896531  0.14021654    -0.08300
C407        C  0.05260286  0.39487421  0.15478991     0.62100
H408        H  0.06390000  0.40531710  0.09382763     0.12800
H409        H  0.13613104  0.48037301  0.15772335     0.12800
C410        C  0.14882355  0.48974346  0.09697157     0.62300
F411        F  0.03171247  0.37978443  0.13304403    -0.22900
F412        F  0.03201781  0.41276422  0.17502460    -0.20200
F413        F  0.06961694  0.36915295  0.17039444    -0.19900
F414        F  0.13248677  0.51563130  0.08111482    -0.19900
F415        F  0.16947622  0.47158364  0.07701276    -0.20200
F416        F  0.16959299  0.50465774  0.11891807    -0.22900
C417        C  0.94106621  0.46591968  0.02769750    -0.05700
C418        C  0.92361603  0.44107346  0.01068713     0.00200
C419        C  0.94221022  0.41959478  0.49014097    -0.08400
C420        C  0.97786589  0.42279375  0.48871044    -0.05800
C421        C  0.99544916  0.44730730  0.00620686     0.00200
C422        C  0.97678026  0.46948520  0.02587441    -0.08300
C423        C  0.99438522  0.49580047  0.04580133     0.62100
H424        H  0.92641171  0.48229881  0.04284136     0.12800
H425        H  0.99241663  0.40620949  0.47367172     0.12800
C426        C  0.92457621  0.39453353  0.46880702     0.62300
F427        F  0.97176817  0.51246319  0.06516476    -0.22900
F428        F  0.00959082  0.51984785  0.52736476    -0.20200
F429        F  0.01887958  0.47989627  0.06382466    -0.19900
F430        F  0.89874164  0.41097184  0.45280663    -0.19900
F431        F  0.91108601  0.36820567  0.98556760    -0.20200
F432        F  0.94688474  0.38079041  0.44741686    -0.22900
C433        C  0.66494304  0.44732550  0.28511170    -0.05700
C434        C  0.64998460  0.42956705  0.26043580     0.00200
C435        C  0.67139163  0.41392800  0.23807566    -0.08400
C436        C  0.70693627  0.41647022  0.24155990    -0.05800
C437        C  0.72166378  0.43511913  0.26556550     0.00200
C438        C  0.70055894  0.45071017  0.28792438    -0.08300
C439        C  0.71557538  0.46999654  0.31500178     0.62100
H440        H  0.64840126  0.45925634  0.30193699     0.12800
H441        H  0.72374357  0.40451467  0.22496135     0.12800
C442        C  0.65725606  0.39447264  0.21066111     0.62300
F443        F  0.69075754  0.47959377  0.33594219    -0.22900
F444        F  0.73153710  0.49917384  0.30468742    -0.20200
F445        F  0.73907573  0.44958721  0.33022973    -0.19900
F446        F  0.64116212  0.41690104  0.19070701    -0.19900
F447        F  0.63434074  0.37012673  0.22052076    -0.20200
F448        F  0.68271136  0.37787063  0.19434796    -0.22900
C449        C  0.70521932  0.43455354  0.48097592    -0.05700
C450        C  0.71879658  0.43032616  0.01058085     0.00200
C451        C  0.69678558  0.42518126  0.03566610    -0.08400
C452        C  0.66146362  0.42301648  0.03014867    -0.05800
C453        C  0.64722846  0.42696213  0.00043328     0.00200
C454        C  0.66980622  0.43313654  0.47521022    -0.08300
C455        C  0.65718020  0.43891954  0.44250611     0.62100
H456        H  0.72277553  0.43959141  0.46238224     0.12800
H457        H  0.64464762  0.41874994  0.04944678     0.12800
C458        C  0.71066508  0.42383428  0.06823037     0.62300
F459        F  0.68350433  0.44588827  0.92247819    -0.22900
F460        F  0.63470140  0.46623358  0.94176668    -0.20200
F461        F  0.64108718  0.40992230  0.43186625    -0.19900
F462        F  0.72716933  0.45407121  0.07468477    -0.19900
F463        F  0.73356937  0.39729363  0.57125010    -0.20200
F464        F  0.68503367  0.41982527  0.58969222    -0.22900
C465        C  0.26099095  0.44831964  0.22526810    -0.05700
C466        C  0.27713375  0.43374503  0.25118908     0.00200
C467        C  0.25665679  0.42259674  0.27631966    -0.08400
C468        C  0.22103372  0.42501917  0.27363041    -0.05800
C469        C  0.20527548  0.43984116  0.24802500     0.00200
C470        C  0.22527529  0.45194893  0.22341569    -0.08300
C471        C  0.20883202  0.46730713  0.19494505     0.62100
H472        H  0.27661761  0.45723524  0.20644485     0.12800
H473        H  0.20487302  0.41556832  0.29184949     0.12800
C474        C  0.27156305  0.40822745  0.30603386     0.62300
F475        F  0.23276576  0.47599689  0.17297478    -0.22900
F476        F  0.19085391  0.49648892  0.20276164    -0.20200
F477        F  0.18678773  0.44392098  0.18202501    -0.19900
F478        F  0.29267918  0.38073060  0.29966953    -0.19900
F479        F  0.28971643  0.43331036  0.32117408    -0.20200
F480        F  0.24650380  0.39705094  0.32598591    -0.22900
C481        C  0.21975575  0.46412456  0.01177730    -0.05700
C482        C  0.20103410  0.44059645  0.99434729     0.00200
C483        C  0.21877900  0.41691642  0.47499470    -0.08400
C484        C  0.25472955  0.41733043  0.47477218    -0.05800
C485        C  0.27326918  0.44005957  0.99338208     0.00200
C486        C  0.25564553  0.46430434  0.01172074    -0.08300
C487        C  0.27447423  0.49071512  0.03073321     0.62100
H488        H  0.20593856  0.48214129  0.02600692     0.12800
H489        H  0.26873576  0.39935288  0.46062434     0.12800
C490        C  0.20006542  0.39214368  0.45415203     0.62300
F491        F  0.25247525  0.51502947  0.04277513    -0.22900
F492        F  0.29796433  0.50730016  0.51233631    -0.20200
F493        F  0.29110954  0.47494339  0.05498882    -0.19900
F494        F  0.17611499  0.40953053  0.43662711    -0.19900
F495        F  0.18385308  0.36805531  0.97146602    -0.20200
F496        F  0.22208398  0.37554277  0.43419669    -0.22900
C497        C  0.55888323  0.75225955  0.23206769    -0.05700
C498        C  0.53477580  0.76906835  0.25056965     0.00200
C499        C  0.51449558  0.74985334  0.27118043    -0.08400
C500        C  0.51888559  0.71416761  0.27208279    -0.05800
C501        C  0.54262996  0.69738172  0.25315672     0.00200
C502        C  0.56329895  0.71669819  0.23295812    -0.08300
C503        C  0.59081592  0.70021000  0.21322260     0.62100
H504        H  0.57436253  0.76740439  0.21669512     0.12800
H505        H  0.50337717  0.69893093  0.28735054     0.12800
C506        C  0.48917206  0.76683363  0.29279503     0.62300
F507        F  0.61149402  0.72424054  0.19940586    -0.22900
F508        F  0.57601944  0.68103277  0.19016252    -0.20200
F509        F  0.61136900  0.67947234  0.23126509    -0.19900
F510        F  0.46293117  0.78152543  0.27601240    -0.19900
F511        F  0.50540818  0.79166748  0.30992558    -0.20200
F512        F  0.47495253  0.74372898  0.31308019    -0.22900
C513        C  0.56562518  0.75436245  0.97766772    -0.05700
C514        C  0.53991546  0.76939551  0.99560422     0.00200
C515        C  0.51688860  0.74807085  0.51173633    -0.08400
C516        C  0.51998605  0.71241637  0.50831773    -0.05800
C517        C  0.54491168  0.69763862  0.98938019     0.00200
C518        C  0.56823543  0.71891442  0.97391981    -0.08300
C519        C  0.59695687  0.70410537  0.95501986     0.62100
H520        H  0.58398541  0.77071588  0.96657682     0.12800
H521        H  0.50280559  0.69563575  0.52048736     0.12800
C522        C  0.49031066  0.76249832  0.53365239     0.62300
F523        F  0.61865220  0.72896448  0.44378612    -0.22900
F524        F  0.58371560  0.68666247  0.43013366    -0.20200
F525        F  0.61576181  0.68223658  0.97344374    -0.19900
F526        F  0.46611403  0.78092727  0.51750263    -0.19900
F527        F  0.50556914  0.78351203  0.05488357    -0.20200
F528        F  0.47323310  0.73709396  0.04934610    -0.22900
C529        C  0.51651374  0.89499731  0.39013365    -0.05700
C530        C  0.53904150  0.87272900  0.40538067     0.00200
C531        C  0.56022242  0.85052276  0.38795515    -0.08400
C532        C  0.55851458  0.85200175  0.35571578    -0.05800
C533        C  0.53584311  0.87405821  0.34049116     0.00200
C534        C  0.51450602  0.89618159  0.35784426    -0.08300
C535        C  0.49036915  0.92154903  0.34255661     0.62100
H536        H  0.50041558  0.91158358  0.40385498     0.12800
H537        H  0.57438989  0.83519618  0.34200145     0.12800
C538        C  0.58279677  0.82376188  0.40311276     0.62300
F539        F  0.47596281  0.94381285  0.36362614    -0.22900
F540        F  0.46415675  0.90435074  0.32815922    -0.20200
F541        F  0.50786453  0.94074745  0.32113447    -0.19900
F542        F  0.56312361  0.80403275  0.42238807    -0.19900
F543        F  0.60850493  0.83916362  0.41977498    -0.20200
F544        F  0.59798544  0.80228178  0.38181366    -0.22900
C545        C  0.55776700  0.85051450  0.14044209    -0.05700
C546        C  0.53395573  0.87156795  0.15542173     0.00200
C547        C  0.51178872  0.89263662  0.13770510    -0.08400
C548        C  0.51416707  0.89140728  0.10546915    -0.05800
C549        C  0.53797962  0.87035785  0.09051582     0.00200
C550        C  0.56031711  0.84950733  0.10820538    -0.08300
C551        C  0.58659544  0.82606460  0.09339798     0.62100
H552        H  0.57459093  0.83479145  0.15435905     0.12800
H553        H  0.49760830  0.90738006  0.09151973     0.12800
C554        C  0.48682074  0.91748090  0.15248270     0.62300
F555        F  0.60189297  0.80455973  0.11469020    -0.22900
F556        F  0.61193951  0.84532008  0.07993641    -0.20200
F557        F  0.57124657  0.80594987  0.07129383    -0.19900
F558        F  0.50399779  0.93840749  0.17279796    -0.19900
F559        F  0.46186564  0.89982751  0.16803439    -0.20200
F560        F  0.47072013  0.93805891  0.13091500    -0.22900
C561        C  0.51984727  0.27113922  0.24070040    -0.05700
C562        C  0.54676316  0.25270362  0.25448182     0.00200
C563        C  0.57350694  0.27092146  0.26928172    -0.08400
C564        C  0.57243237  0.30686241  0.26908550    -0.05800
C565        C  0.54585351  0.32495209  0.25480459     0.00200
C566        C  0.51872861  0.30699749  0.24084939    -0.08300
C567        C  0.48808568  0.32562214  0.22727906     0.62100
H568        H  0.49952536  0.25716216  0.22959437     0.12800
H569        H  0.59265501  0.32131471  0.27986938     0.12800
C570        C  0.60272658  0.25296399  0.28585928     0.62300
F571        F  0.46319683  0.30328080  0.21728800    -0.22900
F572        F  0.47373183  0.34662048  0.24935053    -0.20200
F573        F  0.49806351  0.34509996  0.20241892    -0.19900
F574        F  0.62312710  0.23609270  0.26479969    -0.19900
F575        F  0.58995292  0.22990322  0.30693292    -0.20200
F576        F  0.62315333  0.27566533  0.30173851    -0.22900
C577        C  0.56206711  0.02865271  0.26565452    -0.05700
C578        C  0.53564752  0.04685630  0.25100862     0.00200
C579        C  0.50970101  0.02848773  0.23538433    -0.08400
C580        C  0.51127845  0.99264109  0.23519289    -0.05800
C581        C  0.53778887  0.97451353  0.24967611     0.00200
C582        C  0.56367852  0.99280902  0.26546540    -0.08300
C583        C  0.59269339  0.97503487  0.28258485     0.62100
H584        H  0.58174573  0.04289791  0.27739415     0.12800
H585        H  0.49174294  0.97833041  0.22331986     0.12800
C586        C  0.48086002  0.04625320  0.21826250     0.62300
F587        F  0.61190955  0.99770125  0.29970085    -0.22900
F588        F  0.61434895  0.95933114  0.26181371    -0.20200
F589        F  0.57975587  0.95100447  0.30265464    -0.19900
F590        F  0.49404324  0.06887109  0.19704360    -0.19900
F591        F  0.46060395  0.06361007  0.23892572    -0.20200
F592        F  0.46026179  0.02348809  0.20263009    -0.22900
C593        C  0.56536417  0.26863416  0.49858747    -0.05700
C594        C  0.53317274  0.25316173  0.50214348     0.00200
C595        C  0.50367174  0.27467471  0.00495630    -0.08400
C596        C  0.50788959  0.31035120  0.00357081    -0.05800
C597        C  0.53995542  0.32513210  0.99971906     0.00200
C598        C  0.56925686  0.30423303  0.49743692    -0.07500
C599        C  0.60447569  0.31974010  0.49438774     0.62100
H600        H  0.58784464  0.25264067  0.49659040     0.12800
H601        H  0.48600730  0.32727790  0.00521260     0.12800
C602        C  0.46779431  0.26090469  0.00922189     0.62300
F603        F  0.62989812  0.29507198  0.49356939    -0.22900
F604        F  0.61061661  0.34086976  0.01949330    -0.20200
F605        F  0.60624488  0.33860262  0.46756676    -0.19900
F606        F  0.46639583  0.24060787  0.03516332    -0.19900
F607        F  0.45837792  0.24225441  0.48384489    -0.20200
F608        F  0.44399885  0.28679032  0.01302818    -0.22900
C609        C  0.55538257  0.12832830  0.39604053    -0.05700
C610        C  0.53082355  0.14908897  0.41039166     0.00200
C611        C  0.50905877  0.16986592  0.39209075    -0.08400
C612        C  0.51298387  0.16913006  0.35991404    -0.05800
C613        C  0.53774461  0.14851574  0.34556015     0.00200
C614        C  0.55925680  0.12748981  0.36391299    -0.08300
C615        C  0.58573015  0.10366416  0.34991701     0.62100
H616        H  0.57174727  0.11262299  0.41040831     0.12800
H617        H  0.49679898  0.18505395  0.34557939     0.12800
C618        C  0.48265988  0.19358734  0.40629755     0.62300
F619        F  0.60050973  0.08247379  0.37175405    -0.22900
F620        F  0.61148966  0.12247563  0.33658180    -0.20200
F621        F  0.57057080  0.08323574  0.32793138    -0.19900
F622        F  0.49819224  0.21492858  0.42735042    -0.19900
F623        F  0.45793158  0.17469218  0.42092742    -0.20200
F624        F  0.46655431  0.21374978  0.38442615    -0.22900
C625        C  0.55700158  0.12702747  0.11014655    -0.05700
C626        C  0.53550574  0.15090530  0.09561240     0.00200
C627        C  0.51806697  0.17560753  0.11353183    -0.08400
C628        C  0.52213905  0.17487028  0.14564162    -0.05800
C629        C  0.54268677  0.15032589  0.16027705     0.00200
C630        C  0.56089292  0.12615036  0.14233714    -0.08300
C631        C  0.58366518  0.09910791  0.15694346     0.62100
H632        H  0.57054221  0.10874569  0.09594597     0.12800
H633        H  0.50905805  0.19353898  0.15977882     0.12800
C634        C  0.49615619  0.20328008  0.09891667     0.62300
F635        F  0.59660314  0.07656582  0.13533903    -0.22900
F636        F  0.56528784  0.08051317  0.17818086    -0.20200
F637        F  0.61097482  0.11444794  0.17145253    -0.19900
F638        F  0.46838912  0.18888382  0.08435165    -0.19900
F639        F  0.51535049  0.22117044  0.07778305    -0.20200
F640        F  0.48389328  0.22625506  0.12046468    -0.22900
C641        C  0.55140376  0.02943413  0.02380314    -0.05700
C642        C  0.53119274  0.04682643  0.00213076     0.00200
C643        C  0.51250728  0.02802453  0.47996597    -0.08400
C644        C  0.51547314  0.99222638  0.47989823    -0.05800
C645        C  0.53611139  0.97488030  0.00128785     0.00200
C646        C  0.55365974  0.99358522  0.02422599    -0.08300
C647        C  0.57321521  0.97582756  0.04992437     0.62100
H648        H  0.56509263  0.04428231  0.04077034     0.12800
H649        H  0.50172768  0.97736626  0.46297805     0.12800
C650        C  0.49036781  0.04559115  0.45591139     0.62300
F651        F  0.58499255  0.99873052  0.07166412    -0.22900
F652        F  0.60115773  0.95856479  0.53797539    -0.20200
F653        F  0.55206297  0.95297492  0.06468559    -0.19900
F654        F  0.50948407  0.06919734  0.43991297    -0.19900
F655        F  0.46334866  0.06192898  0.96982586    -0.20200
F656        F  0.47719567  0.02266313  0.43485730    -0.22900
C657        C  0.25773932  0.60779378  0.27430564    -0.05700
C658        C  0.27572337  0.59449728  0.24897182     0.00200
C659        C  0.25697134  0.58071751  0.22374726    -0.08400
C660        C  0.22106770  0.58130403  0.22492244    -0.05800
C661        C  0.20349804  0.59558342  0.24978623     0.00200
C662        C  0.22187913  0.60862270  0.27514671    -0.08300
C663        C  0.20362553  0.62228278  0.30338524     0.62100
H664        H  0.27204542  0.61806529  0.29347160     0.12800
H665        H  0.20621467  0.57120619  0.20600667     0.12800
C666        C  0.27419087  0.56508230  0.19573829     0.62300
F667        F  0.22620598  0.63071594  0.32666151    -0.22900
F668        F  0.18175874  0.59771410  0.31459784    -0.20200
F669        F  0.18513961  0.65125071  0.29582264    -0.19900
F670        F  0.29713728  0.54008120  0.20489114    -0.19900
F671        F  0.29098474  0.59010678  0.17936009    -0.20200
F672        F  0.25091601  0.55010984  0.17599700    -0.22900
C673        C  0.26207023  0.57695840  0.98130688    -0.05700
C674        C  0.27822078  0.60120530  0.49983961     0.00200
C675        C  0.25817118  0.62466611  0.51686520    -0.08400
C676        C  0.22236841  0.62235892  0.51517017    -0.05800
C677        C  0.20610104  0.59767124  0.99703499     0.00200
C678        C  0.22631155  0.57467322  0.97942186    -0.08300
C679        C  0.21059324  0.54871747  0.95773177     0.62100
H680        H  0.27795706  0.55958614  0.96818561     0.12800
H681        H  0.20665623  0.63997207  0.52819096     0.12800
C682        C  0.27439581  0.65303265  0.53545426     0.62300
F683        F  0.23510970  0.53130896  0.44087703    -0.22900
F684        F  0.18843374  0.56432869  0.43784637    -0.20200
F685        F  0.19318353  0.52440733  0.97431885    -0.19900
F686        F  0.29544452  0.67191822  0.51661861    -0.19900
F687        F  0.29316781  0.63881854  0.05986559    -0.20200
F688        F  0.25017972  0.67450453  0.04849701    -0.22900
C689        C  0.08399763  0.57459818  0.38859668    -0.05700
C690        C  0.10277980  0.60005283  0.40359426     0.00200
C691        C  0.12035898  0.62470430  0.38584723    -0.08400
C692        C  0.11800771  0.62303124  0.35361324    -0.05800
C693        C  0.09918857  0.59758618  0.33859153     0.00200
C694        C  0.08138049  0.57311275  0.35637953    -0.08300
C695        C  0.05883455  0.54611731  0.34184852     0.62100
H696        H  0.07093820  0.55585620  0.40248539     0.12800
H697        H  0.13131893  0.64160416  0.33974369     0.12800
C698        C  0.14240390  0.65205566  0.40050627     0.62300
F699        F  0.07874461  0.52252747  0.32656113    -0.22900
F700        F  0.03623950  0.56112408  0.32136691    -0.20200
F701        F  0.03991247  0.52873607  0.36359376    -0.19900
F702        F  0.16511851  0.63730282  0.42105695    -0.19900
F703        F  0.12199979  0.67543446  0.41573334    -0.20200
F704        F  0.16123465  0.66966756  0.37884138    -0.22900
C705        C  0.07986509  0.57925951  0.13818591    -0.05700
C706        C  0.10386468  0.59957197  0.15347457     0.00200
C707        C  0.12791050  0.61841603  0.13621321    -0.08400
C708        C  0.12685231  0.61629747  0.10393348    -0.05800
C709        C  0.10267000  0.59618289  0.08866425     0.00200
C710        C  0.07844859  0.57762043  0.10592551    -0.08300
C711        C  0.05037724  0.55738000  0.09043184     0.62100
H712        H  0.06171718  0.56508989  0.15184107     0.12800
H713        H  0.14494908  0.63048528  0.09023881     0.12800
C714        C  0.15493987  0.64012340  0.15166081     0.62300
F715        F  0.02730304  0.54453750  0.11146019    -0.22900
F716        F  0.06441487  0.53023146  0.07462315    -0.20200
F717        F  0.03262765  0.57811128  0.07013938    -0.19900
F718        F  0.17236810  0.62102515  0.17342388    -0.19900
F719        F  0.13967807  0.66788098  0.16574318    -0.20200
F720        F  0.17855355  0.65225602  0.13076703    -0.22900
C721        C  0.70597401  0.58347936  0.27743838    -0.05700
C722        C  0.72115190  0.59956534  0.25219917     0.00200
C723        C  0.70037799  0.61483855  0.22933604    -0.08400
C724        C  0.66474185  0.61275007  0.23222289    -0.05800
C725        C  0.64919323  0.59680142  0.25752427     0.00200
C726        C  0.67022478  0.58225813  0.28092583    -0.08300
C727        C  0.65547214  0.56495144  0.30915870     0.62100
H728        H  0.72257386  0.57223294  0.29468700     0.12800
H729        H  0.64861918  0.62396868  0.21462768     0.12800
C730        C  0.71577163  0.63253151  0.20160734     0.62300
F731        F  0.68064010  0.55050226  0.32746096    -0.22900
F732        F  0.63347849  0.53930562  0.30026270    -0.20200
F733        F  0.63815038  0.58859743  0.32692527    -0.19900
F734        F  0.73724450  0.61021631  0.18629181    -0.19900
F735        F  0.73408806  0.66067385  0.21104690    -0.20200
F736        F  0.69102134  0.64358976  0.18105168    -0.22900
C737        C  0.94322051  0.62222567  0.26175303    -0.05700
C738        C  0.92622984  0.60104322  0.24074264     0.00200
C739        C  0.94575775  0.58202495  0.21908317    -0.08400
C740        C  0.98153012  0.58213839  0.22176289    -0.05800
C741        C  0.99838431  0.60260335  0.24337077     0.00200
C742        C  0.97899901  0.62367531  0.26334274    -0.08300
C743        C  0.99572809  0.64715194  0.28667234     0.62100
H744        H  0.92807236  0.63778841  0.27715714     0.12800
H745        H  0.99662487  0.56700886  0.20586543     0.12800
C746        C  0.93123211  0.56322122  0.19145399     0.62300
F747        F  0.01259194  0.67305663  0.27154618    -0.22900
F748        F  0.01870491  0.62896547  0.30455007    -0.20200
F749        F  0.97206159  0.66204961  0.30617812    -0.19900
F750        F  0.94563087  0.57629349  0.16495360    -0.19900
F751        F  0.89631643  0.56628809  0.18846876    -0.20200
F752        F  0.93961272  0.52897146  0.19340641    -0.22900
C753        C  0.70792584  0.60937678  0.46902170    -0.05700
C754        C  0.72268491  0.58428327  0.98787464     0.00200
C755        C  0.70116904  0.55851599  0.99989409    -0.08400
C756        C  0.66558768  0.56365228  0.99877024    -0.05800
C757        C  0.65071053  0.58998327  0.98133767     0.00200
C758        C  0.67263135  0.61093414  0.46331217    -0.08300
C759        C  0.66200567  0.63431562  0.43711176     0.62100
H760        H  0.72445340  0.62712571  0.45715202     0.12800
H761        H  0.64881264  0.54592876  0.01032179     0.12800
C762        C  0.71480667  0.52443585  0.01084798     0.62300
F763        F  0.67817267  0.62356491  0.41052568    -0.22900
F764        F  0.67226732  0.66728399  0.94344056    -0.20200
F765        F  0.62757967  0.63464565  0.43124090    -0.19900
F766        F  0.73665184  0.52837898  0.03533644    -0.19900
F767        F  0.73196601  0.50900706  0.48672642    -0.20200
F768        F  0.68891704  0.50291317  0.02006468    -0.22900
C769        C  0.85368884  0.60431286  0.38958934    -0.05700
C770        C  0.82926549  0.58415909  0.40437683     0.00200
C771        C  0.80521303  0.56587606  0.38652037    -0.08400
C772        C  0.80586988  0.56949412  0.35423265    -0.05800
C773        C  0.82955231  0.59075032  0.33954281     0.00200
C774        C  0.85463165  0.60755419  0.35738739    -0.08300
C775        C  0.88319891  0.62752053  0.34249131     0.62100
H776        H  0.87205912  0.61776694  0.40365533     0.12800
H777        H  0.78732002  0.55630772  0.34015519     0.12800
C778        C  0.77801994  0.54403485  0.40146728     0.62300
F779        F  0.90707737  0.63832923  0.36382497    -0.22900
F780        F  0.87016333  0.65604011  0.32780058    -0.20200
F781        F  0.89975917  0.60692948  0.32140399    -0.19900
F782        F  0.75874670  0.56372620  0.42136870    -0.19900
F783        F  0.79317810  0.51763893  0.41765831    -0.20200
F784        F  0.75617873  0.52991193  0.37994860    -0.22900
C785        C  0.84108101  0.62325402  0.10428143    -0.05700
C786        C  0.82003222  0.59938462  0.08951501     0.00200
C787        C  0.79705843  0.58001883  0.10742915    -0.08400
C788        C  0.79793900  0.58299986  0.13959101    -0.05800
C789        C  0.81989551  0.60572968  0.15450657     0.00200
C790        C  0.84153656  0.62680127  0.13662904    -0.08300
C791        C  0.86577401  0.65202769  0.15147149     0.62100
H792        H  0.85759055  0.63882125  0.09022505     0.12800
H793        H  0.78122366  0.56744972  0.15350016     0.12800
C794        C  0.77026569  0.55787334  0.09258974     0.62300
F795        F  0.84732653  0.67718037  0.16641892    -0.22900
F796        F  0.88647398  0.66769765  0.12999043    -0.20200
F797        F  0.88664072  0.63540793  0.17240848    -0.19900
F798        F  0.78569251  0.53037907  0.07829618    -0.19900
F799        F  0.75227554  0.57720773  0.07136176    -0.20200
F800        F  0.74717751  0.54541656  0.11377117    -0.22900
C801        C  0.98284971  0.61477655  0.01912873    -0.05700
C802        C  0.00011801  0.59757938  0.99545873     0.00200
C803        C  0.98111744  0.58053301  0.47244183    -0.08400
C804        C  0.94529721  0.57988054  0.47480461    -0.05800
C805        C  0.92804548  0.59649380  0.99876876     0.00200
C806        C  0.94696750  0.61444916  0.02127482    -0.08300
C807        C  0.92939612  0.63195156  0.04806545     0.62100
H808        H  0.99781874  0.62803473  0.03628253     0.12800
H809        H  0.93030620  0.56671648  0.45759347     0.12800
C810        C  0.99843198  0.56464795  0.44466030     0.62300
F811        F  0.95259158  0.64536338  0.06877897    -0.22900
F812        F  0.90946087  0.60862249  0.06355145    -0.20200
F813        F  0.90903948  0.65812370  0.53774768    -0.19900
F814        F  0.01801690  0.53654597  0.95392676    -0.19900
F815        F  0.01898471  0.58862286  0.43069235    -0.20200
F816        F  0.97500799  0.55352255  0.42305739    -0.22900
C817        C  0.35909826  0.27170626  0.22806460    -0.05700
C818        C  0.38134190  0.25397759  0.24778628     0.00200
C819        C  0.40312976  0.27249761  0.26776072    -0.08400
C820        C  0.40102931  0.30835064  0.26775154    -0.05800
C821        C  0.37911132  0.32610975  0.24772217     0.00200
C822        C  0.35798951  0.30756645  0.22717157    -0.08300
C823        C  0.33393447  0.32526882  0.20470720     0.62100
H824        H  0.34293178  0.25705815  0.21282787     0.12800
H825        H  0.41715376  0.32297256  0.28303484     0.12800
C826        C  0.42800826  0.25472140  0.28944651     0.62300
F827        F  0.31273441  0.30236984  0.18992199    -0.22900
F828        F  0.35258834  0.34198821  0.18242374    -0.20200
F829        F  0.31354774  0.34850472  0.22016596    -0.19900
F830        F  0.45284894  0.23790531  0.27268904    -0.19900
F831        F  0.41082436  0.23151984  0.30758481    -0.20200
F832        F  0.44428150  0.27754959  0.30873237    -0.22900
C833        C  0.35212289  0.31490299  0.01461349    -0.05700
C834        C  0.37013003  0.33033545  0.99040562     0.00200
C835        C  0.38626267  0.30923982  0.46790216    -0.08400
C836        C  0.38327787  0.27357042  0.47061720    -0.05800
C837        C  0.36540890  0.25840929  0.99499490     0.00200
C838        C  0.34964875  0.27925082  0.01743044    -0.08300
C839        C  0.33144829  0.26390679  0.04481850     0.62100
H840        H  0.34003325  0.33112904  0.03159526     0.12800
H841        H  0.39533381  0.25699750  0.45387097     0.12800
C842        C  0.40785072  0.32384546  0.44213534     0.62300
F843        F  0.32053149  0.28860530  0.06538265    -0.22900
F844        F  0.35336133  0.24200299  0.06028485    -0.20200
F845        F  0.30312083  0.24618820  0.53463769    -0.19900
F846        F  0.43218545  0.34525386  0.95419715    -0.19900
F847        F  0.38737527  0.34184498  0.42181243    -0.20200
F848        F  0.42451111  0.29853242  0.42566906    -0.22900
C849        C  0.39695969  0.13676196  0.39102952    -0.05700
C850        C  0.37145970  0.15683749  0.40474437     0.00200
C851        C  0.34941338  0.17683054  0.38608703    -0.08400
C852        C  0.35290143  0.17470187  0.35401182    -0.05800
C853        C  0.37809823  0.15418265  0.34022124     0.00200
C854        C  0.40107099  0.13532111  0.35902035    -0.08300
C855        C  0.42925849  0.11311054  0.34569509     0.62100
H856        H  0.41371214  0.12194079  0.40579356     0.12800
H857        H  0.33593757  0.18936333  0.33931517     0.12800
C858        C  0.32314263  0.20114063  0.39972804     0.62300
F859        F  0.44673486  0.09507093  0.36821751    -0.22900
F860        F  0.45258923  0.13326208  0.33058045    -0.20200
F861        F  0.41550622  0.08987389  0.32535640    -0.19900
F862        F  0.33859169  0.22218967  0.42107559    -0.19900
F863        F  0.29749199  0.18286869  0.41380707    -0.20200
F864        F  0.30824477  0.22170853  0.37746963    -0.22900
C865        C  0.39947192  0.14339414  0.10378579    -0.05700
C866        C  0.36809921  0.15174307  0.08979440     0.00200
C867        C  0.33913926  0.15756182  0.10879128    -0.08400
C868        C  0.34350906  0.15672928  0.14088846    -0.05800
C869        C  0.37517633  0.14952445  0.15489116     0.00200
C870        C  0.40364715  0.14183587  0.13584912    -0.08300
C871        C  0.43839868  0.13185991  0.14872387     0.62100
H872        H  0.42115567  0.13789944  0.08921827     0.12800
H873        H  0.32176810  0.16198226  0.15544388     0.12800
C874        C  0.30365449  0.16472742  0.09592624     0.62300
F875        F  0.46124913  0.12279622  0.12585800    -0.22900
F876        F  0.43522674  0.10412465  0.16815173    -0.20200
F877        F  0.45200850  0.15912082  0.16456429    -0.19900
F878        F  0.29255932  0.13695526  0.07914424    -0.19900
F879        F  0.30427753  0.19332144  0.07740394    -0.20200
F880        F  0.27990802  0.17068695  0.11887742    -0.22900
C881        C  0.36571752  0.75518335  0.27503965    -0.05700
C882        C  0.37785872  0.77124031  0.24855424     0.00200
C883        C  0.38941796  0.75145976  0.22349556    -0.08400
C884        C  0.38918407  0.71570291  0.22616566    -0.05800
C885        C  0.37750875  0.69915027  0.25291809     0.00200
C886        C  0.36524333  0.71940363  0.27787948    -0.08300
C887        C  0.35116052  0.70396673  0.30729858     0.62100
H888        H  0.35693171  0.77117416  0.29376733     0.12800
H889        H  0.39835842  0.70038454  0.20716728     0.12800
C890        C  0.40083551  0.76814967  0.19374312     0.62300
F891        F  0.33768018  0.72853825  0.32673788    -0.22900
F892        F  0.37696262  0.68726189  0.32313382    -0.20200
F893        F  0.32531217  0.68135711  0.30032543    -0.19900
F894        F  0.42940418  0.78779701  0.19905386    -0.19900
F895        F  0.37485811  0.78869202  0.18241418    -0.20200
F896        F  0.40893678  0.74430110  0.17140541    -0.22900
C897        C  0.35476718  0.99357757  0.23124512    -0.05700
C898        C  0.37881129  0.97649754  0.24975467     0.00200
C899        C  0.40138650  0.99578682  0.26837324    -0.08400
C900        C  0.39885046  0.03158462  0.26757829    -0.05800
C901        C  0.37512434  0.04861982  0.24869932     0.00200
C902        C  0.35309334  0.02936028  0.22966713    -0.08300
C903        C  0.32896695  0.04624012  0.20678070     0.62100
H904        H  0.33735825  0.97857685  0.21760608     0.12800
H905        H  0.41570766  0.04671519  0.28169150     0.12800
C906        C  0.42731285  0.97902078  0.28974533     0.62300
F907        F  0.31399499  0.02266795  0.18734965    -0.22900
F908        F  0.34671253  0.06913738  0.18873730    -0.20200
F909        F  0.30320998  0.06319920  0.22227559    -0.19900
F910        F  0.45186278  0.96213435  0.27276063    -0.19900
F911        F  0.41117475  0.95607483  0.30887590    -0.20200
F912        F  0.44381759  0.00262742  0.30809256    -0.22900
C913        C  0.36292880  0.72023784  0.02032785    -0.05700
C914        C  0.38469960  0.70289197  0.00000145     0.00200
C915        C  0.40709568  0.72176937  0.48101498    -0.08400
C916        C  0.40597456  0.75753000  0.48248701    -0.05800
C917        C  0.38260278  0.77496377  0.50122730     0.00200
C918        C  0.36073640  0.75608980  0.02078738    -0.08300
C919        C  0.33526673  0.77336164  0.04213568     0.62100
H920        H  0.34668674  0.70532167  0.03524364     0.12800
H921        H  0.42319434  0.77231309  0.46840072     0.12800
C922        C  0.43246023  0.70446314  0.45962497     0.62300
F923        F  0.32073464  0.75035373  0.56242004    -0.22900
F924        F  0.30953043  0.78828132  0.52524432    -0.20200
F925        F  0.35129858  0.79802033  0.05956008    -0.19900
F926        F  0.45512332  0.72749347  0.44699702    -0.19900
F927        F  0.41535142  0.68886987  0.93576658    -0.20200
F928        F  0.45124408  0.68027807  0.97576707    -0.22900
C929        C  0.40240095  0.85507044  0.35616068    -0.05700
C930        C  0.37799115  0.87513796  0.34083213     0.00200
C931        C  0.35512569  0.89576976  0.35814182    -0.08400
C932        C  0.35783280  0.89551376  0.39039719    -0.05800
C933        C  0.38219534  0.87535008  0.40573224     0.00200
C934        C  0.40460782  0.85429266  0.38839076    -0.08300
C935        C  0.42938609  0.82960454  0.40361636     0.62100
H936        H  0.41948075  0.83937817  0.34254809     0.12800
H937        H  0.34078510  0.91119256  0.40404534     0.12800
C938        C  0.32832218  0.91843116  0.34294840     0.62300
F939        F  0.44499354  0.80817488  0.38252282    -0.22900
F940        F  0.41193627  0.80952682  0.42430733    -0.20200
F941        F  0.45467264  0.84733869  0.41874662    -0.19900
F942        F  0.30357965  0.89846969  0.32932831    -0.19900
F943        F  0.34330334  0.93886188  0.32092227    -0.20200
F944        F  0.31227849  0.93962491  0.36396370    -0.22900
C945        C  0.40378247  0.85632773  0.14057460    -0.05700
C946        C  0.37838127  0.87521705  0.15575597     0.00200
C947        C  0.35469044  0.89475369  0.13822609    -0.08400
C948        C  0.35764063  0.89481791  0.10605593    -0.05800
C949        C  0.38310262  0.87608425  0.09087154     0.00200
C950        C  0.40643852  0.85599364  0.10833480    -0.08300
C951        C  0.43327719  0.83333819  0.09334964     0.62100
H952        H  0.42147568  0.84140827  0.15432431     0.12800
H953        H  0.33994028  0.90977429  0.09234088     0.12800
C954        C  0.32697121  0.91630820  0.15312896     0.62300
F955        F  0.45079763  0.81363876  0.11468540    -0.22900
F956        F  0.45681164  0.85314445  0.07827218    -0.20200
F957        F  0.41806131  0.81154442  0.07254355    -0.19900
F958        F  0.34133284  0.93744423  0.17491807    -0.19900
F959        F  0.30312551  0.89544545  0.16687044    -0.20200
F960        F  0.30998165  0.93670203  0.13198233    -0.22900
C961        C  0.35730502  0.99649075  0.47762493    -0.05700
C962        C  0.38159663  0.98078445  0.99691474     0.00200
C963        C  0.40295059  0.00140928  0.01551006    -0.08400
C964        C  0.39883017  0.03711814  0.01427350    -0.05800
C965        C  0.37414373  0.05279555  0.99538557     0.00200
C966        C  0.35337233  0.03219224  0.47621432    -0.08300
C967        C  0.32797021  0.04760518  0.45359109     0.62100
H968        H  0.34137650  0.98038285  0.46343010     0.12800
H969        H  0.41473702  0.05323164  0.02847795     0.12800
C970        C  0.42911845  0.98600015  0.03739499     0.62300
F971        F  0.31437029  0.02321466  0.43416086    -0.22900
F972        F  0.34397076  0.07176065  0.43554917    -0.20200
F973        F  0.30123457  0.06268554  0.96947093    -0.19900
F974        F  0.45435931  0.96964320  0.52097345    -0.19900
F975        F  0.41348996  0.96282842  0.05670185    -0.20200
F976        F  0.44449803  0.01054861  0.05552822    -0.22900
O977        O  0.35410626  0.82907234  0.49940689    -0.74400
O978        O  0.35409611  0.92673445  0.99761246    -0.74400
O979        O  0.35402946  0.87701274  0.95433101    -0.74500
O980        O  0.35457300  0.87838084  0.54240538    -0.74500
O981        O  0.41137263  0.87773991  0.54220276    -0.74500
O982        O  0.41085849  0.87698305  0.95430562    -0.74400
O983        O  0.41087567  0.92661183  0.49789024    -0.74400
O984        O  0.41093107  0.82865474  0.99884177    -0.74500
Ni985      Ni  0.35218590  0.87789738  0.99841032     1.25400
Ni986      Ni  0.41305493  0.87755998  0.99826463     1.25400
C987        C  0.38245655  0.81276289  0.99991676     0.87800
C988        C  0.38238143  0.94285045  0.49769050     0.87700
C989        C  0.38244985  0.87632593  0.93978964     0.87700
C990        C  0.38313040  0.87733459  0.55683269     0.87900
O991        O  0.40640290  0.87287875  0.79245592    -0.74400
O992        O  0.40660768  0.87382302  0.70440372    -0.74400
O993        O  0.40695683  0.92208189  0.74904531    -0.74500
O994        O  0.40644586  0.82447646  0.74787399    -0.74500
O995        O  0.34950913  0.82509706  0.74840010    -0.74500
O996        O  0.35014616  0.92290044  0.74831870    -0.74400
O997        O  0.34981176  0.87403019  0.70435136    -0.74400
O998        O  0.34958218  0.87421793  0.79214965    -0.74500
Ni999      Ni  0.40864588  0.87324857  0.74843681     1.25400
Ni1000     Ni  0.34774032  0.87403762  0.74826369     1.25400
C1001       C  0.37788492  0.87413596  0.80681422     0.87800
C1002       C  0.37813958  0.87441185  0.68983345     0.87700
C1003       C  0.37870853  0.93863105  0.74921002     0.87700
C1004       C  0.37792958  0.80877531  0.74798360     0.87900
O1005       O  0.34127832  0.15606429  0.95246768    -0.74400
O1006       O  0.33972120  0.15321876  0.54043468    -0.74400
O1007       O  0.33829471  0.20376948  0.99737230    -0.74500
O1008       O  0.34277340  0.10575352  0.49525124    -0.74500
O1009       O  0.39948209  0.10792792  0.99728903    -0.74500
O1010       O  0.39519471  0.20547418  0.49728952    -0.74400
O1011       O  0.39625985  0.15635443  0.54129812    -0.74400
O1012       O  0.39809495  0.15697812  0.95371475    -0.74500
Ni1013     Ni  0.33842732  0.15465476  0.99639157     1.25400
Ni1014     Ni  0.39923435  0.15677909  0.49749147     1.25400
C1015       C  0.37003226  0.15694332  0.93862653     0.87800
C1016       C  0.36776024  0.15406161  0.55552526     0.87700
C1017       C  0.36620908  0.22071436  0.49700471     0.87700
C1018       C  0.37188733  0.09065805  0.49579468     0.87900
O1019       O  0.40795471  0.19883897  0.74698755    -0.74400
O1020       O  0.40433252  0.10151626  0.74838946    -0.74400
O1021       O  0.40510085  0.14939780  0.70360532    -0.74500
O1022       O  0.40658611  0.15104365  0.79154600    -0.74500
O1023       O  0.34981939  0.15340973  0.79187965    -0.74500
O1024       O  0.34853032  0.15146479  0.70421749    -0.74400
O1025       O  0.34757732  0.10353661  0.74876325    -0.74400
O1026       O  0.35116174  0.20136072  0.74725316    -0.74500
Ni1027     Ni  0.40800904  0.15008922  0.74758281     1.25400
Ni1028     Ni  0.34723759  0.15253443  0.74805035     1.25400
C1029       C  0.38023538  0.21619901  0.74735920     0.87800
C1030       C  0.37550951  0.08639293  0.74853138     0.87700
C1031       C  0.37657920  0.14998548  0.68922143     0.87700
C1032       C  0.37837063  0.15256726  0.80623407     0.87900
O1033       O  0.82492084  0.56649204  0.54296489    -0.74400
O1034       O  0.82898737  0.55846530  0.95466899    -0.74400
O1035       O  0.87604268  0.56532834  0.50037591    -0.74500
O1036       O  0.77827786  0.55891504  0.99665857    -0.74500
O1037       O  0.77486634  0.61531169  0.49216374    -0.74500
O1038       O  0.87243774  0.62199910  0.99719913    -0.74400
O1039       O  0.82635204  0.61515173  0.95109772    -0.74400
O1040       O  0.82096718  0.62300448  0.53883517    -0.74500
Ni1041     Ni  0.82727628  0.56027792  0.49894861     1.25400
Ni1042     Ni  0.82349192  0.62085895  0.99474317     1.25400
C1043       C  0.82197018  0.59604672  0.55544367     0.87800
C1044       C  0.82799100  0.58573566  0.93838745     0.87700
C1045       C  0.89032860  0.59461572  0.49920713     0.87700
C1046       C  0.76043750  0.58598817  0.49280185     0.87900
O1047       O  0.87220358  0.62832750  0.74642526    -0.74400
O1048       O  0.77475398  0.62788398  0.75121636    -0.74400
O1049       O  0.82636363  0.62376351  0.79306981    -0.74500
O1050       O  0.82121740  0.63162381  0.70484289    -0.74500
O1051       O  0.82090135  0.57492096  0.70155618    -0.74500
O1052       O  0.82670105  0.56708255  0.78914110    -0.74400
O1053       O  0.77486901  0.57109757  0.74802961    -0.74400
O1054       O  0.87268799  0.57168934  0.74254869    -0.74500
Ni1055     Ni  0.82355329  0.62992677  0.74909814     1.25400
Ni1056     Ni  0.82378768  0.56919578  0.74518619     1.25400
C1057       C  0.88849980  0.60020767  0.74294077     0.87800
C1058       C  0.75876378  0.59954654  0.75029377     0.87700
C1059       C  0.82765194  0.59411417  0.80558540     0.87700
C1060       C  0.82084441  0.60430534  0.68865494     0.87900
O1061       O  0.05434194  0.56957137  0.99496079    -0.74400
O1062       O  0.15202278  0.56938280  0.49617206    -0.74400
O1063       O  0.10261673  0.56856320  0.53968892    -0.74500
O1064       O  0.10366344  0.57072068  0.95162703    -0.74500
O1065       O  0.10278507  0.62748572  0.95286502    -0.74500
O1066       O  0.10314168  0.62539992  0.54077813    -0.74400
O1067       O  0.15191257  0.62619555  0.99688637    -0.74400
O1068       O  0.05379979  0.62638769  0.49690485    -0.74500
Ni1069     Ni  0.10317328  0.56753203  0.49560506     1.25400
Ni1070     Ni  0.10290127  0.62837682  0.49687023     1.25400
C1071       C  0.03793902  0.59791157  0.49561123     0.87800
C1072       C  0.16817990  0.59763168  0.49643704     0.87700
C1073       C  0.10264748  0.59664551  0.55471252     0.87700
C1074       C  0.10341202  0.59953701  0.93769440     0.87900
O1075       O  0.10374580  0.62788469  0.70225912    -0.74400
O1076       O  0.10015347  0.62664469  0.79029364    -0.74400
O1077       O  0.15061693  0.62569653  0.74816490    -0.74500
O1078       O  0.05312071  0.62910927  0.74469635    -0.74500
O1079       O  0.05129389  0.57231423  0.74417774    -0.74500
O1080       O  0.14916183  0.56883295  0.74686330    -0.74400
O1081       O  0.09889842  0.56989854  0.78951169    -0.74400
O1082       O  0.10149900  0.57107980  0.70160170    -0.74500
Ni1083     Ni  0.10194528  0.62935839  0.74633441     1.25400
Ni1084     Ni  0.10015398  0.56849841  0.74550729     1.25400
C1085       C  0.10326636  0.59965854  0.68745454     0.87800
C1086       C  0.09903019  0.59799489  0.80446575     0.87700
C1087       C  0.16589287  0.59675753  0.74838934     0.87700
C1088       C  0.03610544  0.60137284  0.74424207     0.87900
O1089       O  0.50494423  0.15038823  0.54778900    -0.74400
O1090       O  0.50248826  0.14994110  0.95939997    -0.74400
O1091       O  0.50305600  0.10115138  0.50359654    -0.74500
O1092       O  0.50390786  0.19893340  0.00327684    -0.74500
O1093       O  0.56051527  0.19804912  0.50237737    -0.74500
O1094       O  0.55990792  0.10020361  0.00281569    -0.74400
O1095       O  0.55929575  0.14888169  0.95869804    -0.74400
O1096       O  0.56178192  0.14931380  0.54650031    -0.74500
Ni1097     Ni  0.50155885  0.15010002  0.50362405     1.25400
Ni1098     Ni  0.56234247  0.14908765  0.00256772     1.25400
C1099       C  0.53385842  0.15031308  0.56164939     0.87800
C1100       C  0.53064762  0.14952981  0.94449310     0.87700
C1101       C  0.53129697  0.08456850  0.50281221     0.87700
C1102       C  0.53226645  0.21488128  0.00270377     0.87900
O1103       O  0.51143799  0.15116623  0.79615582    -0.74400
O1104       O  0.51400830  0.15212417  0.70826423    -0.74400
O1105       O  0.51005750  0.10283741  0.75164148    -0.74500
O1106       O  0.51566903  0.20038748  0.75277850    -0.74500
O1107       O  0.57227960  0.19661147  0.75390783    -0.74500
O1108       O  0.56666409  0.09911332  0.75304358    -0.74400
O1109       O  0.57073032  0.14802670  0.70940874    -0.74400
O1110       O  0.56809381  0.14745062  0.79759809    -0.74500
Ni1111     Ni  0.51078823  0.15175802  0.75215399     1.25400
Ni1112     Ni  0.57147115  0.14770128  0.75355483     1.25400
C1113       C  0.53931771  0.14891704  0.81145116     0.87800
C1114       C  0.54268713  0.14991464  0.69432269     0.87700
C1115       C  0.53739358  0.08478050  0.75184614     0.87700
C1116       C  0.54497101  0.21470421  0.75380756     0.87900
O1117       O  0.56711894  0.87341393  0.95426315    -0.74400
O1118       O  0.56671597  0.87127321  0.54212072    -0.74400
O1119       O  0.56732888  0.82359209  0.99728972    -0.74500
O1120       O  0.56586979  0.92138591  0.49943736    -0.74500
O1121       O  0.50904945  0.92084710  0.99842501    -0.74500
O1122       O  0.51055719  0.82317751  0.49722954    -0.74400
O1123       O  0.50991068  0.87139904  0.54179573    -0.74400
O1124       O  0.51030104  0.87273725  0.95366930    -0.74500
Ni1125     Ni  0.56878571  0.87247680  0.99825917     1.25400
Ni1126     Ni  0.50789742  0.87200907  0.49775384     1.25400
C1127       C  0.53890408  0.87282906  0.93943861     0.87800
C1128       C  0.53830674  0.87079796  0.55648095     0.87700
C1129       C  0.53912945  0.80720853  0.49715330     0.87700
C1130       C  0.53713554  0.93716777  0.49976070     0.87900
O1131       O  0.56294390  0.87061354  0.70377685    -0.74400
O1132       O  0.56399057  0.87153293  0.79192881    -0.74400
O1133       O  0.56284239  0.82239691  0.74838474    -0.74500
O1134       O  0.56474565  0.91958848  0.74758751    -0.74500
O1135       O  0.50801008  0.92138122  0.74793403    -0.74500
O1136       O  0.50599911  0.82341599  0.74912468    -0.74400
O1137       O  0.50715353  0.87324867  0.79216711    -0.74400
O1138       O  0.50613578  0.87194974  0.70434336    -0.74500
Ni1139     Ni  0.56563807  0.87094063  0.74784470     1.25400
Ni1140     Ni  0.50477489  0.87250410  0.74832684     1.25400
C1141       C  0.53427372  0.87154233  0.68951508     0.87800
C1142       C  0.53563662  0.87312230  0.80653287     0.87700
C1143       C  0.53428979  0.80680430  0.74942262     0.87700
C1144       C  0.53687883  0.93664170  0.74837971     0.87900
O1145       O  0.37859109  0.48113686  0.51923599    -0.74400
O1146       O  0.37372934  0.38369708  0.51650598    -0.74400
O1147       O  0.42504466  0.42983103  0.51741063    -0.74500
O1148       O  0.32748911  0.43539486  0.51824751    -0.74500
O1149       O  0.32673399  0.43660760  0.96711673    -0.74500
O1150       O  0.42484757  0.43154465  0.96628532    -0.74400
O1151       O  0.37346332  0.38514073  0.96548164    -0.74400
O1152       O  0.37782981  0.48290535  0.96807376    -0.74500
Ni1153     Ni  0.37626931  0.43239172  0.51962850     1.25400
Ni1154     Ni  0.37572829  0.43408766  0.96487841     1.25400
C1155       C  0.37866484  0.49806364  0.99418577     0.87800
C1156       C  0.37284309  0.36820881  0.49055610     0.87700
C1157       C  0.44108451  0.43008541  0.49176747     0.87700
C1158       C  0.31105883  0.43730996  0.49282984     0.87900
O1159       O  0.42951106  0.42869336  0.72662102    -0.74400
O1160       O  0.33135167  0.43110462  0.72534834    -0.74400
O1161       O  0.38105578  0.47833091  0.72689032    -0.74500
O1162       O  0.37970480  0.38110931  0.72402672    -0.74500
O1163       O  0.37936859  0.37886344  0.77520443    -0.74500
O1164       O  0.38033630  0.47686952  0.77819651    -0.74400
O1165       O  0.33138884  0.42918518  0.77638762    -0.74400
O1166       O  0.42845253  0.42697006  0.77791839    -0.74500
Ni1167     Ni  0.38046350  0.42981905  0.72387808     1.25400
Ni1168     Ni  0.37986789  0.42783611  0.77873777     1.25400
C1169       C  0.44500273  0.42767372  0.75265310     0.87800
C1170       C  0.31511741  0.43098367  0.75097852     0.87700
C1171       C  0.38051514  0.49361270  0.75284781     0.87700
C1172       C  0.37922144  0.36386356  0.74896322     0.87900
O1173       O  0.37876376  0.55243237  0.97019586    -0.74400
O1174       O  0.38127522  0.64991203  0.97323741    -0.74400
O1175       O  0.42860609  0.59961081  0.97019930    -0.74500
O1176       O  0.33110680  0.60246790  0.97330055    -0.74500
O1177       O  0.33305266  0.60094790  0.52445371    -0.74500
O1178       O  0.43104323  0.59775894  0.52138870    -0.74400
O1179       O  0.38339040  0.64828805  0.52440449    -0.74400
O1180       O  0.38079061  0.55050722  0.52135862    -0.74500
Ni1181     Ni  0.37983070  0.60123648  0.96994744     1.25400
Ni1182     Ni  0.38212291  0.59932111  0.52476492     1.25400
C1183       C  0.37951680  0.53543763  0.49521968     0.87800
C1184       C  0.38323941  0.66517459  0.49915446     0.87700
C1185       C  0.44584058  0.59801883  0.99522016     0.87700
C1186       C  0.31596343  0.60202501  0.99937252     0.87900
O1187       O  0.42676222  0.59574188  0.78034065    -0.74400
O1188       O  0.32881987  0.59531466  0.77673097    -0.74400
O1189       O  0.37846658  0.54683799  0.77885369    -0.74500
O1190       O  0.37732593  0.64450571  0.77861246    -0.74500
O1191       O  0.37928695  0.64481548  0.72758290    -0.74500
O1192       O  0.38046185  0.54711584  0.72756284    -0.74400
O1193       O  0.33116810  0.59568462  0.72567943    -0.74400
O1194       O  0.42856960  0.59593564  0.72904960    -0.74500
Ni1195     Ni  0.37774515  0.59565512  0.78047970     1.25400
Ni1196     Ni  0.37994328  0.59591869  0.72567115     1.25400
C1197       C  0.44369802  0.59553782  0.75515535     0.87800
C1198       C  0.31374663  0.59503933  0.75047986     0.87700
C1199       C  0.37983409  0.53095913  0.75318016     0.87700
C1200       C  0.37793590  0.66096900  0.75320480     0.87900
O1201       O  0.49383677  0.43020914  0.51837979    -0.74400
O1202       O  0.59129084  0.42768327  0.52235831    -0.74400
O1203       O  0.54392582  0.47769767  0.51770948    -0.74500
O1204       O  0.54121011  0.38009718  0.52270808    -0.74500
O1205       O  0.54374920  0.37705649  0.97162758    -0.74500
O1206       O  0.54588834  0.47478856  0.96664581    -0.74400
O1207       O  0.59395921  0.42476492  0.97157009    -0.74400
O1208       O  0.49563992  0.42713669  0.96733072    -0.74500
Ni1209     Ni  0.54248089  0.42901720  0.52205694     1.25400
Ni1210     Ni  0.54490747  0.42578633  0.96743642     1.25400
C1211       C  0.47860208  0.42901942  0.99245807     0.87800
C1212       C  0.60904607  0.42632515  0.49767336     0.87700
C1213       C  0.54550945  0.49229746  0.49136452     0.87700
C1214       C  0.54196916  0.36259350  0.49786744     0.87900
O1215       O  0.49729643  0.42685786  0.78019025    -0.74400
O1216       O  0.59501189  0.42731163  0.78419123    -0.74400
O1217       O  0.54570861  0.47596025  0.78333691    -0.74500
O1218       O  0.54654868  0.37803367  0.78142227    -0.74500
O1219       O  0.54817210  0.37921601  0.73015286    -0.74500
O1220       O  0.54794867  0.47683294  0.73206423    -0.74400
O1221       O  0.59688299  0.42818412  0.73306136    -0.74400
O1222       O  0.49943930  0.42818243  0.72890705    -0.74500
Ni1223     Ni  0.54605313  0.42695715  0.78414267     1.25400
Ni1224     Ni  0.54824719  0.42811588  0.72925178     1.25400
C1225       C  0.48235689  0.42752442  0.75391912     0.87800
C1226       C  0.61213121  0.42801493  0.75910814     0.87700
C1227       C  0.54682285  0.49244697  0.75792305     0.87700
C1228       C  0.54686085  0.36257835  0.75546344     0.87900
O1229       O  0.54990700  0.54640818  0.51511197    -0.74400
O1230       O  0.54996460  0.64386254  0.51417164    -0.74400
O1231       O  0.50135692  0.59581376  0.51789774    -0.74500
O1232       O  0.59921839  0.59458147  0.51029330    -0.74500
O1233       O  0.59436865  0.59263572  0.95938170    -0.74500
O1234       O  0.49712948  0.59592404  0.96676959    -0.74400
O1235       O  0.54638407  0.64362919  0.96301043    -0.74400
O1236       O  0.54463962  0.54527357  0.96412447    -0.74500
Ni1237     Ni  0.55041174  0.59517220  0.51616386     1.25400
Ni1238     Ni  0.54552488  0.59437980  0.96148645     1.25400
C1239       C  0.54676716  0.52978172  0.99008082     0.87800
C1240       C  0.54757178  0.65986655  0.48861951     0.87700
C1241       C  0.48325419  0.59648057  0.49329812     0.87700
C1242       C  0.61299589  0.59333818  0.48350633     0.87900
O1243       O  0.49756223  0.59391527  0.73055178    -0.74400
O1244       O  0.59524322  0.59446432  0.73191585    -0.74400
O1245       O  0.54698254  0.54544824  0.73213172    -0.74500
O1246       O  0.54559595  0.64264343  0.72986340    -0.74500
O1247       O  0.54451732  0.64456202  0.78105809    -0.74500
O1248       O  0.54630778  0.54642963  0.78343629    -0.74400
O1249       O  0.59455129  0.59607152  0.78303650    -0.74400
O1250       O  0.49668550  0.59517999  0.78186138    -0.74500
Ni1251     Ni  0.54640373  0.59402412  0.72934491     1.25400
Ni1252     Ni  0.54554310  0.59557457  0.78422795     1.25400
C1253       C  0.48108871  0.59481447  0.75595603     0.87800
C1254       C  0.61115134  0.59545157  0.75770919     0.87700
C1255       C  0.54672732  0.52988692  0.75798649     0.87700
C1256       C  0.54464984  0.65969204  0.75488014     0.87900
O1257       O  0.10200863  0.47274541  0.54442736    -0.74400
O1258       O  0.09666977  0.47258349  0.95628038    -0.74400
O1259       O  0.05028172  0.47437405  0.50295094    -0.74500
O1260       O  0.14804052  0.47092205  0.99790752    -0.74500
O1261       O  0.14625639  0.41382007  0.49811174    -0.74500
O1262       O  0.04870679  0.41791663  0.00319626    -0.74400
O1263       O  0.09472713  0.41578299  0.95677634    -0.74400
O1264       O  0.10014466  0.41599243  0.54472937    -0.74500
Ni1265     Ni  0.09931237  0.47452272  0.50036802     1.25400
Ni1266     Ni  0.09736405  0.41405464  0.00072876     1.25400
C1267       C  0.10178567  0.44444795  0.55913410     0.87800
C1268       C  0.09521691  0.44401339  0.94201639     0.87700
C1269       C  0.03338726  0.44653625  0.50422408     0.87700
C1270       C  0.16323053  0.44188330  0.99670396     0.87900
O1271       O  0.10565454  0.46894216  0.79448804    -0.74400
O1272       O  0.09957208  0.46817101  0.70675468    -0.74400
O1273       O  0.05363738  0.46742802  0.75353876    -0.74500
O1274       O  0.15144489  0.46888396  0.74779998    -0.74500
O1275       O  0.15206480  0.41197982  0.74917995    -0.74500
O1276       O  0.05495436  0.41088090  0.75349498    -0.74400
O1277       O  0.10102935  0.41136621  0.70701171    -0.74400
O1278       O  0.10559026  0.41213549  0.79538100    -0.74500
Ni1279     Ni  0.10252984  0.47038596  0.75059612     1.25400
Ni1280     Ni  0.10350013  0.40957043  0.75121506     1.25400
C1281       C  0.10603954  0.44087152  0.80945500     0.87800
C1282       C  0.09952394  0.43972148  0.69234389     0.87700
C1283       C  0.03801378  0.43874671  0.75481291     0.87700
C1284       C  0.16773785  0.44044423  0.74776512     0.87900
O1285       O  0.82228575  0.40595584  0.97220820    -0.74400
O1286       O  0.82333085  0.40857766  0.56020436    -0.74400
O1287       O  0.77378403  0.40462572  0.01615749    -0.74500
O1288       O  0.87151594  0.40978555  0.51543836    -0.74500
O1289       O  0.86832257  0.46673434  0.01470167    -0.74500
O1290       O  0.77075599  0.46130983  0.51420012    -0.74400
O1291       O  0.81940455  0.46529728  0.55889556    -0.74400
O1292       O  0.81977109  0.46271532  0.97080527    -0.74500
Ni1293     Ni  0.82282713  0.40514630  0.51622139     1.25400
Ni1294     Ni  0.81944699  0.46594326  0.51471812     1.25400
C1295       C  0.82108709  0.43386142  0.95698781     0.87800
C1296       C  0.82195306  0.43735797  0.57405505     0.87700
C1297       C  0.75627461  0.43214439  0.51427690     0.87700
C1298       C  0.88604973  0.43889758  0.51388929     0.87900
O1299       O  0.82495188  0.41227368  0.72096505    -0.74400
O1300       O  0.82570950  0.41006215  0.80906058    -0.74400
O1301       O  0.77658307  0.40928828  0.76516072    -0.74500
O1302       O  0.87402035  0.41305587  0.76486554    -0.74500
O1303       O  0.87172593  0.46958315  0.76508162    -0.74500
O1304       O  0.77397719  0.46607863  0.76735091    -0.74400
O1305       O  0.82426223  0.46684405  0.81015354    -0.74400
O1306       O  0.82128806  0.46902712  0.72208260    -0.74500
Ni1307     Ni  0.82540135  0.40915960  0.76498769     1.25400
Ni1308     Ni  0.82273791  0.46992006  0.76621138     1.25400
C1309       C  0.82258079  0.44099143  0.70702293     0.87800
C1310       C  0.82550786  0.43813490  0.82413317     0.87700
C1311       C  0.75924475  0.43703692  0.76647732     0.87700
C1312       C  0.88923570  0.44190656  0.76475538     0.87900
C1313       C  0.84294378  0.45760128  0.90850933    -0.05700
C1314       C  0.82244678  0.43320471  0.92298392     0.00200
C1315       C  0.80430490  0.40928822  0.90483603    -0.08400
C1316       C  0.80571463  0.41225114  0.87262769    -0.05800
C1317       C  0.82570280  0.43709339  0.85817441     0.00200
C1318       C  0.84582296  0.45928432  0.87635826    -0.08300
C1319       C  0.87214451  0.48270399  0.86216665     0.62100
H1320       H  0.85746311  0.47495090  0.92275253     0.12800
H1321       H  0.79123146  0.39494299  0.85833272     0.12800
C1322       C  0.78351721  0.38080355  0.91908442     0.62300
F1323       F  0.89264903  0.49777231  0.88422376    -0.22900
F1324       F  0.85626251  0.50844166  0.84569440    -0.20200
F1325       F  0.89301713  0.46386589  0.84289297    -0.19900
F1326       F  0.76062525  0.39407197  0.94007443    -0.19900
F1327       F  0.80508570  0.35792433  0.93374009    -0.20200
F1328       F  0.76513417  0.36295241  0.89722115    -0.22900
C1329       C  0.84809821  0.42371963  0.65758527    -0.05700
C1330       C  0.82211044  0.44149020  0.67300518     0.00200
C1331       C  0.79610190  0.45812180  0.65582482    -0.08400
C1332       C  0.79733614  0.45661893  0.62348939    -0.05800
C1333       C  0.82304526  0.43839976  0.60807373     0.00200
C1334       C  0.84923236  0.42204713  0.62527866    -0.08300
C1335       C  0.87892234  0.40398729  0.60967677     0.62100
H1336       H  0.86771974  0.41122386  0.67118894     0.12800
H1337       H  0.77783631  0.46926930  0.60993382     0.12800
C1338       C  0.76639120  0.47600232  0.67150110     0.62300
F1339       F  0.90366060  0.39382023  0.63060726    -0.22900
F1340       F  0.89405114  0.42572935  0.58875665    -0.20200
F1341       F  0.86748143  0.37523403  0.59456330    -0.19900
F1342       F  0.77785063  0.50436841  0.68718968    -0.19900
F1343       F  0.75104918  0.45393280  0.69194316    -0.20200
F1344       F  0.74181083  0.48658367  0.65061059    -0.22900
C1345       C  0.98332365  0.46950825  0.76361844    -0.05700
C1346       C  0.99998501  0.43819036  0.75823647     0.00200
C1347       C  0.97995970  0.40798202  0.75669201    -0.08400
C1348       C  0.94427796  0.41095512  0.75908447    -0.05800
C1349       C  0.92750066  0.44238760  0.76363902     0.00200
C1350       C  0.94765830  0.47229000  0.76671392    -0.08300
C1351       C  0.93227158  0.50726933  0.77286281     0.62100
H1352       H  0.99862697  0.49228634  0.76538378     0.12800
H1353       H  0.92901531  0.38818621  0.75717712     0.12800
C1354       C  0.99533473  0.37244317  0.75263715     0.62300
F1355       F  0.95689015  0.53210107  0.77659746    -0.22900
F1356       F  0.91304877  0.50666446  0.79940976    -0.20200
F1357       F  0.91195356  0.51662867  0.74833831    -0.19900
F1358       F  0.01669444  0.36494284  0.77713792    -0.19900
F1359       F  0.01331677  0.37073194  0.72536115    -0.20200
F1360       F  0.97070079  0.34729733  0.75162432    -0.22900
C1361       C  0.12283010  0.46163484  0.89375672    -0.05700
C1362       C  0.09643436  0.44355353  0.90800917     0.00200
C1363       C  0.07327840  0.42462204  0.88977467    -0.08400
C1364       C  0.07796737  0.42390716  0.85769039    -0.05800
C1365       C  0.10455903  0.44172660  0.84345516     0.00200
C1366       C  0.12759913  0.46083173  0.86169009    -0.08300
C1367       C  0.15819591  0.47862899  0.84771788     0.62100
H1368       H  0.14034983  0.47574245  0.90817688     0.12800
H1369       H  0.06040625  0.40984852  0.84327295     0.12800
C1370       C  0.04284747  0.40664474  0.90385867     0.62300
F1371       F  0.17924919  0.49245492  0.87002226    -0.22900
F1372       F  0.14765586  0.50479783  0.82858335    -0.20200
F1373       F  0.17720111  0.45538289  0.83101299    -0.19900
F1374       F  0.02405027  0.42962270  0.92113857    -0.19900
F1375       F  0.05375649  0.38013303  0.92246233    -0.20200
F1376       F  0.02150842  0.39316074  0.88160472    -0.22900
C1377       C  0.08002373  0.42111618  0.60799367    -0.05700
C1378       C  0.10185633  0.44422182  0.59326429     0.00200
C1379       C  0.12284408  0.46579695  0.61129946    -0.08400
C1380       C  0.12062474  0.46372171  0.64353766    -0.05800
C1381       C  0.09923025  0.44022070  0.65823930     0.00200
C1382       C  0.07816276  0.41876931  0.64024829    -0.08300
C1383       C  0.05266398  0.39471407  0.65485239     0.62100
H1384       H  0.06400132  0.40502228  0.59387587     0.12800
H1385       H  0.13616168  0.48024233  0.65767955     0.12800
C1386       C  0.14875951  0.48962397  0.59691811     0.62300
F1387       F  0.03178296  0.37958074  0.63312418    -0.22900
F1388       F  0.03207038  0.41265485  0.67504380    -0.20200
F1389       F  0.06966383  0.36902499  0.67051228    -0.19900
F1390       F  0.13231913  0.51549051  0.58111767    -0.19900
F1391       F  0.16940818  0.47153750  0.57690282    -0.20200
F1392       F  0.16954543  0.50456282  0.61883788    -0.22900
C1393       C  0.94115139  0.46565971  0.52772023    -0.05700
C1394       C  0.92368785  0.44081231  0.51072025     0.00200
C1395       C  0.94215125  0.41987603  0.99009925    -0.08400
C1396       C  0.97780774  0.42308698  0.98867799    -0.05800
C1397       C  0.99551845  0.44701931  0.50622300     0.00200
C1398       C  0.97686607  0.46921376  0.52588747    -0.08300
C1399       C  0.99448685  0.49554522  0.54578973     0.62100
H1400       H  0.92650578  0.48205557  0.54285648     0.12800
H1401       H  0.99236747  0.40651520  0.97363540     0.12800
C1402       C  0.92452920  0.39482598  0.96874557     0.62300
F1403       F  0.97188381  0.51221248  0.56516339    -0.22900
F1404       F  0.00951230  0.52010884  0.02740018    -0.20200
F1405       F  0.01900488  0.47966192  0.56380301    -0.19900
F1406       F  0.89869209  0.41126994  0.95275240    -0.19900
F1407       F  0.91112768  0.36793299  0.48565089    -0.20200
F1408       F  0.94684631  0.38110808  0.94734984    -0.22900
C1409       C  0.66493680  0.44731930  0.78513968    -0.05700
C1410       C  0.64999138  0.42957364  0.76044889     0.00200
C1411       C  0.67141029  0.41396642  0.73808030    -0.08400
C1412       C  0.70695156  0.41652305  0.74157369    -0.05800
C1413       C  0.72166491  0.43518059  0.76558031     0.00200
C1414       C  0.70055039  0.45072879  0.78795403    -0.08300
C1415       C  0.71555752  0.46998165  0.81505386     0.62100
H1416       H  0.64838696  0.45922027  0.80197574     0.12800
H1417       H  0.72376741  0.40457044  0.72498136     0.12800
C1418       C  0.65729275  0.39453712  0.71064260     0.62300
F1419       F  0.69073311  0.47954755  0.83599940    -0.22900
F1420       F  0.73152171  0.49917192  0.80477337    -0.20200
F1421       F  0.73905528  0.44955397  0.83026451    -0.19900
F1422       F  0.64119031  0.41698197  0.69070885    -0.19900
F1423       F  0.63439036  0.37016412  0.72047177    -0.20200
F1424       F  0.68276146  0.37797275  0.69431556    -0.22900
C1425       C  0.70514511  0.43457880  0.98102986    -0.05700
C1426       C  0.71885216  0.43030758  0.51053542     0.00200
C1427       C  0.69681801  0.42524054  0.53561692    -0.08400
C1428       C  0.66150144  0.42305325  0.53007976    -0.05800
C1429       C  0.64728608  0.42696964  0.50035349     0.00200
C1430       C  0.66973280  0.43311792  0.97527622    -0.08300
C1431       C  0.65709313  0.43881578  0.94256429     0.62100
H1432       H  0.72268764  0.43963981  0.96243077     0.12800
H1433       H  0.64467241  0.41881702  0.54937404     0.12800
C1434       C  0.71066173  0.42405567  0.56819742     0.62300
F1435       F  0.68359882  0.44605955  0.42244765    -0.22900
F1436       F  0.63478113  0.46633360  0.44176309    -0.20200
F1437       F  0.64098796  0.40979216  0.93199737    -0.19900
F1438       F  0.72710833  0.45435028  0.57455111    -0.19900
F1439       F  0.73353305  0.39702142  0.07116075    -0.20200
F1440       F  0.68505511  0.41954236  0.08973254    -0.22900
C1441       C  0.26099347  0.44815111  0.72519722    -0.05700
C1442       C  0.27714819  0.43376315  0.75119918     0.00200
C1443       C  0.25667460  0.42287575  0.77643217    -0.08400
C1444       C  0.22105020  0.42527106  0.77373140    -0.05800
C1445       C  0.20528693  0.43988559  0.74803536     0.00200
C1446       C  0.22527985  0.45180805  0.72334949    -0.08300
C1447       C  0.20882799  0.46701105  0.69481551     0.62100
H1448       H  0.27660737  0.45690171  0.70630260     0.12800
H1449       H  0.20489084  0.41596656  0.79201203     0.12800
C1450       C  0.27157523  0.40884603  0.80628115     0.62300
F1451       F  0.23275564  0.47559465  0.67280519    -0.22900
F1452       F  0.19084479  0.49622991  0.70251178    -0.20200
F1453       F  0.18678503  0.44355327  0.68200018    -0.19900
F1454       F  0.29259348  0.38119892  0.80018788    -0.19900
F1455       F  0.28982561  0.43406838  0.82113493    -0.20200
F1456       F  0.24650913  0.39801382  0.82638225    -0.22900
C1457       C  0.21979666  0.46382581  0.51173878    -0.05700
C1458       C  0.20109508  0.44023579  0.49435964     0.00200
C1459       C  0.21869775  0.41729519  0.97495173    -0.08400
C1460       C  0.25464781  0.41763100  0.97477529    -0.05800
C1461       C  0.27332864  0.43985725  0.49330078     0.00200
C1462       C  0.25568204  0.46409724  0.51162186    -0.08300
C1463       C  0.27448245  0.49060739  0.53054359     0.62100
H1464       H  0.20596741  0.48183811  0.52596286     0.12800
H1465       H  0.26863400  0.39965903  0.96060561     0.12800
C1466       C  0.19996270  0.39262226  0.95402822     0.62300
F1467       F  0.25244952  0.51491263  0.54255019    -0.22900
F1468       F  0.29801975  0.50741477  0.01259809    -0.20200
F1469       F  0.29119008  0.47494726  0.55481713    -0.19900
F1470       F  0.17603917  0.41010136  0.93654782    -0.19900
F1471       F  0.18399106  0.36762266  0.47166956    -0.20200
F1472       F  0.22197005  0.37607193  0.93402930    -0.22900
C1473       C  0.55908382  0.75221657  0.73229223    -0.05700
C1474       C  0.53487742  0.76904713  0.75067456     0.00200
C1475       C  0.51450332  0.74985479  0.77123092    -0.08400
C1476       C  0.51886434  0.71416583  0.77215920    -0.05800
C1477       C  0.54268992  0.69736231  0.75333124     0.00200
C1478       C  0.56349389  0.71665841  0.73323494    -0.08300
C1479       C  0.59115909  0.70014804  0.71368416     0.62100
H1480       H  0.57465009  0.76733949  0.71697421     0.12800
H1481       H  0.50327090  0.69894110  0.78736604     0.12800
C1482       C  0.48911155  0.76685915  0.79276650     0.62300
F1483       F  0.61194316  0.72416294  0.69997604    -0.22900
F1484       F  0.57654282  0.68093966  0.69055231    -0.20200
F1485       F  0.61157212  0.67943502  0.73187657    -0.19900
F1486       F  0.46292195  0.78153285  0.77590664    -0.19900
F1487       F  0.50529502  0.79171021  0.80991809    -0.20200
F1488       F  0.47482980  0.74377652  0.81303617    -0.22900
C1489       C  0.56566995  0.75435536  0.47764323    -0.05700
C1490       C  0.53998522  0.76937374  0.49561905     0.00200
C1491       C  0.51675180  0.74810332  0.01165828    -0.08400
C1492       C  0.51984219  0.71244634  0.00824673    -0.05800
C1493       C  0.54501607  0.69762047  0.48940074     0.00200
C1494       C  0.56830397  0.71890700  0.47390586    -0.08300
C1495       C  0.59701826  0.70411311  0.45498532     0.62100
H1496       H  0.58399096  0.77072131  0.46651328     0.12800
H1497       H  0.50263316  0.69567192  0.02038985     0.12800
C1498       C  0.49011329  0.76254144  0.03350970     0.62300
F1499       F  0.61861706  0.72894373  0.94383916    -0.22900
F1500       F  0.58366157  0.68666824  0.93015680    -0.20200
F1501       F  0.61585535  0.68226027  0.47339819    -0.19900
F1502       F  0.46602335  0.78105758  0.01731494    -0.19900
F1503       F  0.50580524  0.78354854  0.55493885    -0.20200
F1504       F  0.47355910  0.73704591  0.54959405    -0.22900
C1505       C  0.51659029  0.89499904  0.89013240    -0.05700
C1506       C  0.53914216  0.87276449  0.90538927     0.00200
C1507       C  0.56037487  0.85059592  0.88797448    -0.08400
C1508       C  0.55866739  0.85205800  0.85573480    -0.05800
C1509       C  0.53595968  0.87407014  0.84050180     0.00200
C1510       C  0.51459268  0.89617440  0.85784410    -0.08300
C1511       C  0.49043132  0.92151263  0.84254726     0.62100
H1512       H  0.50046152  0.91156414  0.90384532     0.12800
H1513       H  0.57457331  0.83527448  0.84202739     0.12800
C1514       C  0.58301469  0.82389610  0.90314224     0.62300
F1515       F  0.47602039  0.94378478  0.86360702    -0.22900
F1516       F  0.46422384  0.90428469  0.82817088    -0.20200
F1517       F  0.50790342  0.94070667  0.82110643    -0.19900
F1518       F  0.56339586  0.80413605  0.92243626    -0.19900
F1519       F  0.60869395  0.83936986  0.91978639    -0.20200
F1520       F  0.59824464  0.80243389  0.88185240    -0.22900
C1521       C  0.55781911  0.85048882  0.64044602    -0.05700
C1522       C  0.53399598  0.87152503  0.65543184     0.00200
C1523       C  0.51181086  0.89257760  0.63771713    -0.08400
C1524       C  0.51420203  0.89136830  0.60548032    -0.05800
C1525       C  0.53802574  0.87033576  0.59052079     0.00200
C1526       C  0.56036821  0.84948789  0.60820766    -0.08300
C1527       C  0.58665713  0.82606045  0.59339687     0.62100
H1528       H  0.57465438  0.83477429  0.65435962     0.12800
H1529       H  0.49763727  0.90733817  0.59153415     0.12800
C1530       C  0.48679686  0.91737426  0.65249721     0.62300
F1531       F  0.60195217  0.80454738  0.61468400    -0.22900
F1532       F  0.61199816  0.84533199  0.57995022    -0.20200
F1533       F  0.57132488  0.80595296  0.57127906    -0.19900
F1534       F  0.50392869  0.93832044  0.67282748    -0.19900
F1535       F  0.46186624  0.89966916  0.66803320    -0.20200
F1536       F  0.47066882  0.93793536  0.63093279    -0.22900
C1537       C  0.51995819  0.27108776  0.74060588    -0.05700
C1538       C  0.54680877  0.25267523  0.75451298     0.00200
C1539       C  0.57345324  0.27091000  0.76943436    -0.08400
C1540       C  0.57237160  0.30685047  0.76920728    -0.05800
C1541       C  0.54587775  0.32492427  0.75477734     0.00200
C1542       C  0.51883439  0.30694679  0.74071132    -0.08300
C1543       C  0.48826925  0.32554225  0.72696608     0.62100
H1544       H  0.49969472  0.25708961  0.72943280     0.12800
H1545       H  0.59252477  0.32131378  0.78008481     0.12800
C1546       C  0.60255913  0.25296614  0.78618414     0.62300
F1547       F  0.46342486  0.30317952  0.71692141    -0.22900
F1548       F  0.47379924  0.34661037  0.74892240    -0.20200
F1549       F  0.49839022  0.34493969  0.70210227    -0.19900
F1550       F  0.62311482  0.23609423  0.76524796    -0.19900
F1551       F  0.58964140  0.22990517  0.80718521    -0.20200
F1552       F  0.62286267  0.27567955  0.80217830    -0.22900
C1553       C  0.56217200  0.02861730  0.76567794    -0.05700
C1554       C  0.53573017  0.04682845  0.75107235     0.00200
C1555       C  0.50971925  0.02846297  0.73552947    -0.08400
C1556       C  0.51130551  0.99261825  0.73530801    -0.05800
C1557       C  0.53784810  0.97448537  0.74973428     0.00200
C1558       C  0.56375422  0.99277203  0.76551023    -0.08300
C1559       C  0.59274294  0.97498654  0.78265599     0.62100
H1560       H  0.58188293  0.04285562  0.77738016     0.12800
H1561       H  0.49174626  0.97831257  0.72346189     0.12800
C1562       C  0.48078113  0.04622911  0.71854430     0.62300
F1563       F  0.61194731  0.99764718  0.79978924    -0.22900
F1564       F  0.61441560  0.95926895  0.76190856    -0.20200
F1565       F  0.57977063  0.95096552  0.80271676    -0.19900
F1566       F  0.49384442  0.06884293  0.69725993    -0.19900
F1567       F  0.46065290  0.06358596  0.73930952    -0.20200
F1568       F  0.46008200  0.02346788  0.70301657    -0.22900
C1569       C  0.56534148  0.26864733  0.99870199    -0.05700
C1570       C  0.53313932  0.25316549  0.00214883     0.00200
C1571       C  0.50371883  0.27467940  0.50501887    -0.08400
C1572       C  0.50793714  0.31035361  0.50358322    -0.05800
C1573       C  0.53999135  0.32512442  0.49961802     0.00200
C1574       C  0.56923198  0.30424846  0.99759514    -0.07500
C1575       C  0.60445619  0.31976505  0.99463487     0.62100
H1576       H  0.58783193  0.25266006  0.99675530     0.12800
H1577       H  0.48606364  0.32728538  0.50527586     0.12800
C1578       C  0.46785573  0.26092001  0.50940888     0.62300
F1579       F  0.62988616  0.29510266  0.99385840    -0.22900
F1580       F  0.61070780  0.34086043  0.51922082    -0.20200
F1581       F  0.60629378  0.33864664  0.96782877    -0.19900
F1582       F  0.46655665  0.24063768  0.53536288    -0.19900
F1583       F  0.45841895  0.24225358  0.98361687    -0.20200
F1584       F  0.44407729  0.28681103  0.51327874    -0.22900
C1585       C  0.55532565  0.12819096  0.89604836    -0.05700
C1586       C  0.53085799  0.14906538  0.91039049     0.00200
C1587       C  0.50920096  0.16995334  0.89209256    -0.08400
C1588       C  0.51313703  0.16921197  0.85991974    -0.05800
C1589       C  0.53780592  0.14848394  0.84557379     0.00200
C1590       C  0.55920634  0.12734330  0.86392276    -0.08300
C1591       C  0.58555623  0.10338611  0.84992016     0.62100
H1592       H  0.57160893  0.11240559  0.91042040     0.12800
H1593       H  0.49703385  0.18521546  0.84558211     0.12800
C1594       C  0.48291544  0.19379871  0.90630306     0.62300
F1595       F  0.60022228  0.08211055  0.87175161    -0.22900
F1596       F  0.61141504  0.12206596  0.83659085    -0.20200
F1597       F  0.57029028  0.08304843  0.82792608    -0.19900
F1598       F  0.49854493  0.21502930  0.92738892    -0.19900
F1599       F  0.45806630  0.17502184  0.92089566    -0.20200
F1600       F  0.46694548  0.21407598  0.88443803    -0.22900
C1601       C  0.55717944  0.12706608  0.61016319    -0.05700
C1602       C  0.53560884  0.15088602  0.59563721     0.00200
C1603       C  0.51811723  0.17554069  0.61356996    -0.08400
C1604       C  0.52219781  0.17480225  0.64567786    -0.05800
C1605       C  0.54281326  0.15031029  0.66030471     0.00200
C1606       C  0.56108830  0.12619600  0.64235439    -0.08300
C1607       C  0.58395437  0.09922682  0.65695139     0.62100
H1608       H  0.57076604  0.10882413  0.59595686     0.12800
H1609       H  0.50907523  0.19343548  0.65982156     0.12800
C1610       C  0.49615966  0.20318521  0.59897176     0.62300
F1611       F  0.59695547  0.07672734  0.63534163    -0.22900
F1612       F  0.56564635  0.08057247  0.67819728    -0.20200
F1613       F  0.61122129  0.11465758  0.67144795    -0.19900
F1614       F  0.46842291  0.18875552  0.58438747    -0.19900
F1615       F  0.51533552  0.22112878  0.57786203    -0.20200
F1616       F  0.48384649  0.22611818  0.62053304    -0.22900
C1617       C  0.55144539  0.02941264  0.52376680    -0.05700
C1618       C  0.53118726  0.04681447  0.50213593     0.00200
C1619       C  0.51259001  0.02803259  0.97991228    -0.08400
C1620       C  0.51557426  0.99223747  0.97984731    -0.05800
C1621       C  0.53606249  0.97486072  0.50129312     0.00200
C1622       C  0.55367980  0.99356192  0.52419170    -0.08300
C1623       C  0.57329042  0.97579930  0.54985401     0.62100
H1624       H  0.56518986  0.04425484  0.54070148     0.12800
H1625       H  0.50188301  0.97737232  0.96289477     0.12800
C1626       C  0.49052076  0.04559312  0.95580226     0.62300
F1627       F  0.58509194  0.99869602  0.57158821    -0.22900
F1628       F  0.60109345  0.95856946  0.03809413    -0.20200
F1629       F  0.55217816  0.95292554  0.56463593    -0.19900
F1630       F  0.50968713  0.06919049  0.93984314    -0.19900
F1631       F  0.46323469  0.06191796  0.47000373    -0.20200
F1632       F  0.47740709  0.02265931  0.93472331    -0.22900
C1633       C  0.25771787  0.60782179  0.77439086    -0.05700
C1634       C  0.27570477  0.59448412  0.74907599     0.00200
C1635       C  0.25695547  0.58068559  0.72385893    -0.08400
C1636       C  0.22105198  0.58131896  0.72500963    -0.05800
C1637       C  0.20347908  0.59564733  0.74984871     0.00200
C1638       C  0.22185637  0.60868141  0.77521484    -0.08300
C1639       C  0.20359794  0.62235381  0.80344661     0.62100
H1640       H  0.27202328  0.61809587  0.79355605     0.12800
H1641       H  0.20620244  0.57121458  0.70609438     0.12800
C1642       C  0.27417812  0.56497553  0.69588555     0.62300
F1643       F  0.22617559  0.63080808  0.82671897    -0.22900
F1644       F  0.18173941  0.59778386  0.81467053    -0.20200
F1645       F  0.18510199  0.65131132  0.79587248    -0.19900
F1646       F  0.29711020  0.53998621  0.70509355    -0.19900
F1647       F  0.29098951  0.58995295  0.67946382    -0.20200
F1648       F  0.25090297  0.54996424  0.67616829    -0.22900
C1649       C  0.26209942  0.57676824  0.48141507    -0.05700
C1650       C  0.27819172  0.60122281  0.99992053     0.00200
C1651       C  0.25813685  0.62452087  0.01712712    -0.08400
C1652       C  0.22233551  0.62224372  0.01539009    -0.05800
C1653       C  0.20612271  0.59761020  0.49701124     0.00200
C1654       C  0.22633800  0.57445491  0.47956132    -0.08300
C1655       C  0.21062833  0.54829816  0.45806467     0.62100
H1656       H  0.27799066  0.55929003  0.46841221     0.12800
H1657       H  0.20661375  0.63973173  0.02853757     0.12800
C1658       C  0.27434744  0.65269210  0.03596556     0.62300
F1659       F  0.23506623  0.53192845  0.94037794    -0.22900
F1660       F  0.18835502  0.56492640  0.93766753    -0.20200
F1661       F  0.19317349  0.52417106  0.47482534    -0.19900
F1662       F  0.29545095  0.67173557  0.01731434    -0.19900
F1663       F  0.29328313  0.63940504  0.55942536    -0.20200
F1664       F  0.25023298  0.67494029  0.54785902    -0.22900
C1665       C  0.08405953  0.57466328  0.88860308    -0.05700
C1666       C  0.10278776  0.60015653  0.90360028     0.00200
C1667       C  0.12030229  0.62485605  0.88585526    -0.08400
C1668       C  0.11794647  0.62318174  0.85362186    -0.05800
C1669       C  0.09916915  0.59770342  0.83860131     0.00200
C1670       C  0.08141699  0.57318942  0.85639010    -0.08300
C1671       C  0.05888699  0.54617118  0.84187122     0.62100
H1672       H  0.07105483  0.55588231  0.90249025     0.12800
H1673       H  0.13121764  0.64178323  0.83975220     0.12800
C1674       C  0.14227847  0.65226474  0.90051234     0.62300
F1675       F  0.07879646  0.52263243  0.82652568    -0.22900
F1676       F  0.03622426  0.56116544  0.82144419    -0.20200
F1677       F  0.04004248  0.52872727  0.86363086    -0.19900
F1678       F  0.16503697  0.63757206  0.92105773    -0.19900
F1679       F  0.12181606  0.67558807  0.91574501    -0.20200
F1680       F  0.16105720  0.66992927  0.87884511    -0.22900
C1681       C  0.07982079  0.57939011  0.63820575    -0.05700
C1682       C  0.10384742  0.59967979  0.65348519     0.00200
C1683       C  0.12791289  0.61848709  0.63621357    -0.08400
C1684       C  0.12685141  0.61634943  0.60393389    -0.05800
C1685       C  0.10265140  0.59624657  0.58867344     0.00200
C1686       C  0.07840413  0.57772740  0.60594539    -0.08300
C1687       C  0.05030197  0.55751373  0.59046524     0.62100
H1688       H  0.06165499  0.56525279  0.65186900     0.12800
H1689       H  0.14496707  0.63050427  0.59023192     0.12800
C1690       C  0.15497829  0.64015815  0.65165185     0.62300
F1691       F  0.02721329  0.54471682  0.61150398    -0.22900
F1692       F  0.06429481  0.53033522  0.57466413    -0.20200
F1693       F  0.03257617  0.57825750  0.57016849    -0.19900
F1694       F  0.17242341  0.62101709  0.67337377    -0.19900
F1695       F  0.13975901  0.66790839  0.66578237    -0.20200
F1696       F  0.17856918  0.65230398  0.63074332    -0.22900
C1697       C  0.70596962  0.58342470  0.77744851    -0.05700
C1698       C  0.72113634  0.59959308  0.75224588     0.00200
C1699       C  0.70035042  0.61495417  0.72943787    -0.08400
C1700       C  0.66471548  0.61284079  0.73232605    -0.05800
C1701       C  0.64918028  0.59680621  0.75758956     0.00200
C1702       C  0.67022216  0.58219699  0.78094849    -0.08300
C1703       C  0.65547944  0.56481128  0.80914549     0.62100
H1704       H  0.72257684  0.57212097  0.79466105     0.12800
H1705       H  0.64858249  0.62410869  0.71476403     0.12800
C1706       C  0.71572784  0.63277200  0.70176608     0.62300
F1707       F  0.68065483  0.55032461  0.82741381    -0.22900
F1708       F  0.63349199  0.53918255  0.80019618    -0.20200
F1709       F  0.63815359  0.58840360  0.82696608    -0.19900
F1710       F  0.73720592  0.61053294  0.68636602    -0.19900
F1711       F  0.73403378  0.66088322  0.71129845    -0.20200
F1712       F  0.69096560  0.64390963  0.68125659    -0.22900
C1713       C  0.94319524  0.62224363  0.76184147    -0.05700
C1714       C  0.92621489  0.60110159  0.74078880     0.00200
C1715       C  0.94575136  0.58215137  0.71908691    -0.08400
C1716       C  0.98152414  0.58230525  0.72174626    -0.05800
C1717       C  0.99836841  0.60273249  0.74338808     0.00200
C1718       C  0.97897429  0.62372946  0.76341566    -0.08300
C1719       C  0.99569744  0.64715857  0.78678723     0.62100
H1720       H  0.92803767  0.63773847  0.77729525     0.12800
H1721       H  0.99662665  0.56722658  0.70581556     0.12800
C1722       C  0.93123506  0.56336465  0.69144459     0.62300
F1723       F  0.01255910  0.67309804  0.77170800    -0.22900
F1724       F  0.01867709  0.62893775  0.80463292    -0.20200
F1725       F  0.97202690  0.66200981  0.80631764    -0.19900
F1726       F  0.94556525  0.57652400  0.66494926    -0.19900
F1727       F  0.89630845  0.56634327  0.68850343    -0.20200
F1728       F  0.93970645  0.52913195  0.69333541    -0.22900
C1729       C  0.70786872  0.60942941  0.96906479    -0.05700
C1730       C  0.72273346  0.58423699  0.48784205     0.00200
C1731       C  0.70121795  0.55846812  0.49985566    -0.08400
C1732       C  0.66563597  0.56359857  0.49871585    -0.05800
C1733       C  0.65076380  0.58993431  0.48128371     0.00200
C1734       C  0.67257246  0.61098109  0.96335941    -0.08300
C1735       C  0.66193754  0.63434740  0.93715117     0.62100
H1736       H  0.72439086  0.62717949  0.95719083     0.12800
H1737       H  0.64885779  0.54587218  0.51026013     0.12800
C1738       C  0.71486106  0.52439529  0.51082441     0.62300
F1739       F  0.67811295  0.62359579  0.91056958    -0.22900
F1740       F  0.67235473  0.66724405  0.44341024    -0.20200
F1741       F  0.62751191  0.63465372  0.93127679    -0.19900
F1742       F  0.73670357  0.52835164  0.53531402    -0.19900
F1743       F  0.73190457  0.50905614  0.98674168    -0.20200
F1744       F  0.68897278  0.50287459  0.52004575    -0.22900
C1745       C  0.85383742  0.60402187  0.88957905    -0.05700
C1746       C  0.82921678  0.58411412  0.90437137     0.00200
C1747       C  0.80496840  0.56607859  0.88652781    -0.08400
C1748       C  0.80562478  0.56971214  0.85424387    -0.05800
C1749       C  0.82950989  0.59073422  0.83955138     0.00200
C1750       C  0.85478590  0.60726036  0.85737679    -0.08300
C1751       C  0.88354247  0.62692417  0.84245040     0.62100
H1752       H  0.87235371  0.61728419  0.90363874     0.12800
H1753       H  0.78693123  0.55672056  0.84017212     0.12800
C1754       C  0.77759084  0.54448399  0.90149046     0.62300
F1755       F  0.90753201  0.63752993  0.86376668    -0.22900
F1756       F  0.87077410  0.65554230  0.82772755    -0.20200
F1757       F  0.89989529  0.60614559  0.82137858    -0.19900
F1758       F  0.75851683  0.56434466  0.92140912    -0.19900
F1759       F  0.79252745  0.51794975  0.91766646    -0.20200
F1760       F  0.75559913  0.53056868  0.87998531    -0.22900
C1761       C  0.84109817  0.62322265  0.60430119    -0.05700
C1762       C  0.82005231  0.59934430  0.58954074     0.00200
C1763       C  0.79708036  0.57998166  0.60746190    -0.08400
C1764       C  0.79794065  0.58299931  0.63962253    -0.05800
C1765       C  0.81988686  0.60574603  0.65453077     0.00200
C1766       C  0.84153974  0.62679718  0.63664701    -0.08300
C1767       C  0.86577479  0.65203029  0.65148286     0.62100
H1768       H  0.85761914  0.63877417  0.59024081     0.12800
H1769       H  0.78121896  0.56746296  0.65353865     0.12800
C1770       C  0.77030961  0.55780005  0.59263241     0.62300
F1771       F  0.84732528  0.67718827  0.66642091    -0.22900
F1772       F  0.88647661  0.66769166  0.62999827    -0.20200
F1773       F  0.88663907  0.63542006  0.67242749    -0.19900
F1774       F  0.78576225  0.53032348  0.57833306    -0.19900
F1775       F  0.75228760  0.57711291  0.57141110    -0.20200
F1776       F  0.74724714  0.54531147  0.61382249    -0.22900
C1777       C  0.98286923  0.61467003  0.51923705    -0.05700
C1778       C  0.00012751  0.59762584  0.49547226     0.00200
C1779       C  0.98111086  0.58031640  0.97252691    -0.08400
C1780       C  0.94528907  0.57968151  0.97488730    -0.05800
C1781       C  0.92806430  0.59652097  0.49878901     0.00200
C1782       C  0.94698847  0.61432578  0.52138881    -0.08300
C1783       C  0.92941630  0.63165586  0.54826951     0.62100
H1784       H  0.99784298  0.62782101  0.53645476     0.12800
H1785       H  0.93030392  0.56639464  0.95774975     0.12800
C1786       C  0.99842383  0.56422204  0.94484160     0.62300
F1787       F  0.95261192  0.64495995  0.56904011    -0.22900
F1788       F  0.90949972  0.60822361  0.56364905    -0.20200
F1789       F  0.90904174  0.65837175  0.03741239    -0.19900
F1790       F  0.01807236  0.53694147  0.45358581    -0.19900
F1791       F  0.01901844  0.58807390  0.93075447    -0.20200
F1792       F  0.97500004  0.55298566  0.92328598    -0.22900
C1793       C  0.35952583  0.27164366  0.72769849    -0.05700
C1794       C  0.38154480  0.25393790  0.74763508     0.00200
C1795       C  0.40316510  0.27247255  0.76773895    -0.08400
C1796       C  0.40104849  0.30832446  0.76770563    -0.05800
C1797       C  0.37930401  0.32607144  0.74750950     0.00200
C1798       C  0.35844651  0.30750396  0.72674899    -0.08300
C1799       C  0.33472726  0.32516858  0.70397270     0.62100
H1800       H  0.34352118  0.25697247  0.71234067     0.12800
H1801       H  0.41702634  0.32295394  0.78310868     0.12800
C1802       C  0.42788541  0.25470534  0.78957434     0.62300
F1803       F  0.31376668  0.30224441  0.68894174    -0.22900
F1804       F  0.35371983  0.34186199  0.68190689    -0.20200
F1805       F  0.31409343  0.34841601  0.71915022    -0.19900
F1806       F  0.45284354  0.23788086  0.77296114    -0.19900
F1807       F  0.41057194  0.23151099  0.80761859    -0.20200
F1808       F  0.44402030  0.27754194  0.80894673    -0.22900
C1809       C  0.35212503  0.31492074  0.51445780    -0.05700
C1810       C  0.37022767  0.33031803  0.49029276     0.00200
C1811       C  0.38607864  0.30928173  0.96794209    -0.08400
C1812       C  0.38310240  0.27360883  0.97062903    -0.05800
C1813       C  0.36549124  0.25840061  0.49494562     0.00200
C1814       C  0.34964305  0.27927430  0.51730864    -0.08300
C1815       C  0.33135915  0.26397670  0.54467111     0.62100
H1816       H  0.33997218  0.33117267  0.53138348     0.12800
H1817       H  0.39509950  0.25705482  0.95383375     0.12800
C1818       C  0.40757851  0.32391064  0.94212477     0.62300
F1819       F  0.32035872  0.28871048  0.56516547    -0.22900
F1820       F  0.35324012  0.24212284  0.56023000    -0.20200
F1821       F  0.30316777  0.24615598  0.03482766    -0.19900
F1822       F  0.43240513  0.34521363  0.45425877    -0.19900
F1823       F  0.38703727  0.34193988  0.92187684    -0.20200
F1824       F  0.42417062  0.29861238  0.92558481    -0.22900
C1825       C  0.39702690  0.13684079  0.89103388    -0.05700
C1826       C  0.37147901  0.15685904  0.90474491     0.00200
C1827       C  0.34939390  0.17680297  0.88608168    -0.08400
C1828       C  0.35288935  0.17467651  0.85400636    -0.05800
C1829       C  0.37812769  0.15420539  0.84021739     0.00200
C1830       C  0.40114014  0.13539754  0.85902382    -0.08300
C1831       C  0.42938378  0.11325075  0.84570791     0.62100
H1832       H  0.41381576  0.12206524  0.90580143     0.12800
H1833       H  0.33589552  0.18930188  0.83930886     0.12800
C1834       C  0.32307141  0.20106155  0.89971664     0.62300
F1835       F  0.44689091  0.09524848  0.86823519    -0.22900
F1836       F  0.45267382  0.13346110  0.83060638    -0.20200
F1837       F  0.41569812  0.08998235  0.82536089    -0.19900
F1838       F  0.33846904  0.22213232  0.92107727    -0.19900
F1839       F  0.29744575  0.18273792  0.91377807    -0.20200
F1840       F  0.30815019  0.22161046  0.87745681    -0.22900
C1841       C  0.39952325  0.14332371  0.60377341    -0.05700
C1842       C  0.36816522  0.15174109  0.58978751     0.00200
C1843       C  0.33922309  0.15763418  0.60878737    -0.08400
C1844       C  0.34359193  0.15677333  0.64088282    -0.05800
C1845       C  0.37524261  0.14948668  0.65488182     0.00200
C1846       C  0.40370018  0.14175670  0.63583696    -0.08300
C1847       C  0.43843818  0.13173122  0.64871046     0.62100
H1848       H  0.42119192  0.13778286  0.58920122     0.12800
H1849       H  0.32186314  0.16207019  0.65544017     0.12800
C1850       C  0.30375779  0.16491171  0.59592716     0.62300
F1851       F  0.46128178  0.12265330  0.62584327    -0.22900
F1852       F  0.43522829  0.10399123  0.66812711    -0.20200
F1853       F  0.45207974  0.15896640  0.66456427    -0.19900
F1854       F  0.29255866  0.13716315  0.57917075    -0.19900
F1855       F  0.30447239  0.19348261  0.57738108    -0.20200
F1856       F  0.28004104  0.17098092  0.61888028    -0.22900
C1857       C  0.36579888  0.75517248  0.77512377    -0.05700
C1858       C  0.37780429  0.77120542  0.74857622     0.00200
C1859       C  0.38925717  0.75140533  0.72349268    -0.08400
C1860       C  0.38904335  0.71565179  0.72619316    -0.05800
C1861       C  0.37749421  0.69911918  0.75300300     0.00200
C1862       C  0.36535090  0.71939550  0.77799827    -0.08300
C1863       C  0.35143474  0.70398936  0.80749527     0.62100
H1864       H  0.35709945  0.77118175  0.79387118     0.12800
H1865       H  0.39813214  0.70032123  0.70716989     0.12800
C1866       C  0.40054971  0.76807113  0.69368972     0.62300
F1867       F  0.33809768  0.72858393  0.82699052    -0.22900
F1868       F  0.37731893  0.68727063  0.82320973    -0.20200
F1869       F  0.32552250  0.68140082  0.80066264    -0.19900
F1870       F  0.42911404  0.78775724  0.69889918    -0.19900
F1871       F  0.37451064  0.78857189  0.68241481    -0.20200
F1872       F  0.40859981  0.74420385  0.67135298    -0.22900
C1873       C  0.35466079  0.99355175  0.73128019    -0.05700
C1874       C  0.37871503  0.97646268  0.74977326     0.00200
C1875       C  0.40128423  0.99574372  0.76840499    -0.08400
C1876       C  0.39874184  0.03154210  0.76763035    -0.05800
C1877       C  0.37502021  0.04858974  0.74875544     0.00200
C1878       C  0.35296920  0.02933779  0.72973351    -0.08300
C1879       C  0.32878567  0.04623034  0.70690409     0.62100
H1880       H  0.33725941  0.97855368  0.71762899     0.12800
H1881       H  0.41559077  0.04666508  0.78175864     0.12800
C1882       C  0.42721294  0.97896730  0.78976930     0.62300
F1883       F  0.31375676  0.02266967  0.68749774    -0.22900
F1884       F  0.34648433  0.06913499  0.68883105    -0.20200
F1885       F  0.30307266  0.06318381  0.72246344    -0.19900
F1886       F  0.45176099  0.96208419  0.77277826    -0.19900
F1887       F  0.41107356  0.95601678  0.80889537    -0.20200
F1888       F  0.44372289  0.00256617  0.80812093    -0.22900
C1889       C  0.36299365  0.72021301  0.52037289    -0.05700
C1890       C  0.38472414  0.70287868  0.50000108     0.00200
C1891       C  0.40709656  0.72176817  0.98103110    -0.08400
C1892       C  0.40596390  0.75753160  0.98247302    -0.05800
C1893       C  0.38256493  0.77497709  0.00118135     0.00200
C1894       C  0.36082092  0.75606701  0.52086828    -0.08300
C1895       C  0.33542689  0.77333421  0.54229176     0.62100
H1896       H  0.34675518  0.70528468  0.53529258     0.12800
H1897       H  0.42319678  0.77230035  0.96839986     0.12800
C1898       C  0.43250999  0.70444317  0.95970000     0.62300
F1899       F  0.32047232  0.75038183  0.06220276    -0.22900
F1900       F  0.30944636  0.78833222  0.02501023    -0.20200
F1901       F  0.35150777  0.79801411  0.55965291    -0.19900
F1902       F  0.45519820  0.72746356  0.94709419    -0.19900
F1903       F  0.41524695  0.68891936  0.43570751    -0.20200
F1904       F  0.45122744  0.68028005  0.47563920    -0.22900
C1905       C  0.40238816  0.85507127  0.85615349    -0.05700
C1906       C  0.37794106  0.87509497  0.84082607     0.00200
C1907       C  0.35504419  0.89569024  0.85813792    -0.08400
C1908       C  0.35777302  0.89546041  0.89039159    -0.05800
C1909       C  0.38217825  0.87534781  0.90572562     0.00200
C1910       C  0.40460946  0.85430979  0.88838340    -0.08300
C1911       C  0.42942605  0.82965848  0.90360776     0.62100
H1912       H  0.41948776  0.83940064  0.84254082     0.12800
H1913       H  0.34070727  0.91111937  0.90403968     0.12800
C1914       C  0.32818202  0.91828569  0.84294870     0.62300
F1915       F  0.44502926  0.80822115  0.88251784    -0.22900
F1916       F  0.41201804  0.80958426  0.92433037    -0.20200
F1917       F  0.45471219  0.84743125  0.91870149    -0.19900
F1918       F  0.30348652  0.89826258  0.82933253    -0.19900
F1919       F  0.34311032  0.93875494  0.82092158    -0.20200
F1920       F  0.31208698  0.93943788  0.86396589    -0.22900
C1921       C  0.40371488  0.85631625  0.64057778    -0.05700
C1922       C  0.37828160  0.87516879  0.65575267     0.00200
C1923       C  0.35456323  0.89466639  0.63821801    -0.08400
C1924       C  0.35753615  0.89474896  0.60605000    -0.05800
C1925       C  0.38304006  0.87606394  0.59087297     0.00200
C1926       C  0.40639351  0.85599837  0.60834062    -0.08300
C1927       C  0.43328392  0.83339378  0.59336572     0.62100
H1928       H  0.42142078  0.84141669  0.65433140     0.12800
H1929       H  0.33981898  0.90968033  0.59233054     0.12800
C1930       C  0.32677889  0.91614775  0.65311086     0.62300
F1931       F  0.45082478  0.81371966  0.61470694    -0.22900
F1932       F  0.45679258  0.85324634  0.57830621    -0.20200
F1933       F  0.41812718  0.81157692  0.57254563    -0.19900
F1934       F  0.34106624  0.93732034  0.67491252    -0.19900
F1935       F  0.30298007  0.89521746  0.66683527    -0.20200
F1936       F  0.30974802  0.93649920  0.63195780    -0.22900
C1937       C  0.35731030  0.99649671  0.97765801    -0.05700
C1938       C  0.38155284  0.98076969  0.49691534     0.00200
C1939       C  0.40288009  0.00138646  0.51554363    -0.08400
C1940       C  0.39877295  0.03709617  0.51430494    -0.05800
C1941       C  0.37412635  0.05278259  0.49538245     0.00200
C1942       C  0.35336099  0.03219553  0.97625075    -0.08300
C1943       C  0.32790669  0.04759289  0.95366586     0.62100
H1944       H  0.34136080  0.98038275  0.96348816     0.12800
H1945       H  0.41465914  0.05320398  0.52853361     0.12800
C1946       C  0.42900209  0.98596758  0.53746802     0.62300
F1947       F  0.31428165  0.02319350  0.93425910    -0.22900
F1948       F  0.34385938  0.07175459  0.93559604    -0.20200
F1949       F  0.30127630  0.06271140  0.46935582    -0.19900
F1950       F  0.45444673  0.96968195  0.02086047    -0.19900
F1951       F  0.41332860  0.96279942  0.55674835    -0.20200
F1952       F  0.44435317  0.01051007  0.55562754    -0.22900
loop_ 
_geom_bond_atom_site_label_1 
_geom_bond_atom_site_label_2 
_geom_bond_distance 
_geom_bond_site_symmetry_2 
_ccdc_geom_bond_type 
O1         Ni985   1.914       .  S
O1          C987   1.279       .  A
O2           Ni9   1.917       .  S
O2          C988   1.281       .  A
O3           Ni9   1.918       .  S
O3           C13   1.282       .  A
O4         Ni985   1.915   1_554  S
O4           C14   1.282       .  A
O5         Ni986   1.911   1_554  S
O5           C14   1.278       .  A
O6          Ni10   1.913       .  S
O6           C13   1.279       .  A
O7         Ni986   1.925       .  S
O7           C12   1.282       .  A
O8          Ni10   1.920       .  S
O8           C11   1.283       .  A
Ni9         O977   1.915       .  S
Ni9         O980   1.915       .  S
Ni9         Ni10   2.386       .  S
Ni10        O981   1.911       .  S
Ni10        O983   1.925       .  S
C11         O977   1.279       .  A
C11         C917   1.482       .  S
C12         O978   1.281       .  A
C12         C962   1.487       .  S
C13         C933   1.482       .  S
C14         C949   1.481       .  S
O15         Ni23   1.916       .  S
O15          C25   1.282       .  A
O16         Ni23   1.916       .  S
O16          C26   1.282       .  A
O17         Ni23   1.915       .  S
O17          C27   1.280       .  A
O18         Ni23   1.915       .  S
O18          C28   1.280       .  A
O19         Ni24   1.920       .  S
O19          C28   1.281       .  A
O20         Ni24   1.919       .  S
O20          C27   1.282       .  A
O21         Ni24   1.911       .  S
O21          C26   1.279       .  A
O22         Ni24   1.909       .  S
O22          C25   1.278       .  A
Ni23        Ni24   2.387       .  S
C25         C930   1.479       .  S
C26         C946   1.482       .  S
C27         C898   1.483       .  S
C28         C882   1.473       .  S
O29         Ni37   1.914       .  S
O29          C39   1.279       .  A
O30       Ni1013   1.916   1_554  S
O30          C40   1.279       .  A
O31         Ni37   1.926       .  S
O31        C1017   1.282       .  A
O32       Ni1013   1.924       .  S
O32          C42   1.282       .  A
O33       Ni1014   1.916       .  S
O33        C1018   1.281       .  A
O34         Ni38   1.915       .  S
O34          C41   1.280       .  A
O35         Ni38   1.909   1_554  S
O35          C40   1.282       .  A
O36       Ni1014   1.904       .  S
O36          C39   1.279       .  A
Ni37       O1006   1.916       .  S
Ni37       O1008   1.924       .  S
Ni37      Ni1014   2.384       .  S
Ni38       O1009   1.916       .  S
Ni38       O1012   1.904       .  S
Ni38      Ni1013   2.384       .  S
C39         C850   1.474       .  S
C40         C866   1.493       .  S
C41        O1007   1.282       .  A
C41         C837   1.480       .  S
C42        O1009   1.281       .  A
C42         C965   1.487       .  S
O43         Ni51   1.911       .  S
O43          C53   1.278       .  A
O44         Ni51   1.911       .  S
O44          C54   1.279       .  A
O45         Ni51   1.915       .  S
O45          C55   1.280       .  A
O46         Ni51   1.913       .  S
O46          C56   1.279       .  A
O47         Ni52   1.908       .  S
O47          C56   1.280       .  A
O48         Ni52   1.907       .  S
O48          C55   1.280       .  A
O49         Ni52   1.921       .  S
O49          C54   1.281       .  A
O50         Ni52   1.922       .  S
O50          C53   1.283       .  A
Ni51        Ni52   2.383       .  S
C53         C818   1.481       .  S
C54         C901   1.482       .  S
C55         C869   1.494       .  S
C56         C853   1.479       .  S
O57         Ni65   1.932   1_554  S
O57          C67   1.284       .  A
O58       Ni1041   1.928       .  S
O58          C68   1.282       .  A
O59         Ni65   1.924   1_554  S
O59          C69   1.282   1_554  A
O60       Ni1041   1.922       .  S
O60        C1046   1.280       .  A
O61       Ni1042   1.923       .  S
O61          C70   1.285       .  A
O62         Ni66   1.922       .  S
O62        C1045   1.281       .  A
O63         Ni66   1.914       .  S
O63          C68   1.280       .  A
O64       Ni1042   1.921   1_554  S
O64          C67   1.280       .  A
Ni65       O1034   1.928       .  S
Ni65       O1036   1.922       .  S
Ni65      Ni1042   2.385       .  S
Ni66       O1037   1.923       .  S
Ni66       O1040   1.921       .  S
Ni66      Ni1041   2.385       .  S
C67         C786   1.490       .  S
C68         C770   1.482       .  S
C69        O1038   1.281       .  A
C69         C805   1.482       .  S
C70        O1036   1.280       .  A
C70         C754   1.495       .  S
O71         Ni79   1.911       .  S
O71          C81   1.280       .  A
O72         Ni79   1.917       .  S
O72          C82   1.280       .  A
O73         Ni79   1.930       .  S
O73          C83   1.284       .  A
O74         Ni79   1.927       .  S
O74          C84   1.282       .  A
O75         Ni80   1.913       .  S
O75          C84   1.281       .  A
O76         Ni80   1.916       .  S
O76          C83   1.280       .  A
O77         Ni80   1.922       .  S
O77          C82   1.282       .  A
O78         Ni80   1.923       .  S
O78          C81   1.282       .  A
Ni79        Ni80   2.387       .  S
C81         C738   1.482       .  S
C82         C722   1.477       .  S
C83         C773   1.485       .  S
C84         C789   1.485       .  S
O85       Ni1069   1.916       .  S
O85        C1071   1.280       .  A
O86         Ni93   1.916       .  S
O86          C96   1.279       .  A
O87         Ni93   1.917   1_554  S
O87          C97   1.281       .  A
O88       Ni1069   1.915       .  S
O88          C98   1.282       .  A
O89       Ni1070   1.915       .  S
O89          C98   1.279       .  A
O90         Ni94   1.913   1_554  S
O90          C97   1.280       .  A
O91       Ni1070   1.923       .  S
O91        C1072   1.283       .  A
O92         Ni94   1.927       .  S
O92          C95   1.283       .  A
Ni93       O1061   1.916       .  S
Ni93       O1064   1.915       .  S
Ni93        Ni94   2.386       .  S
Ni94       O1065   1.915       .  S
Ni94       O1067   1.923       .  S
C95        O1061   1.280       .  A
C95         C802   1.482       .  S
C96        O1067   1.283       .  A
C96         C677   1.487       .  S
C97         C709   1.477       .  S
C98         C690   1.483       .  S
O99        Ni107   1.919       .  S
O99         C109   1.281       .  A
O100       Ni107   1.916       .  S
O100        C110   1.282       .  A
O101       Ni107   1.913       .  S
O101        C111   1.279       .  A
O102       Ni107   1.915       .  S
O102        C112   1.280       .  A
O103       Ni108   1.921       .  S
O103        C112   1.282       .  A
O104       Ni108   1.922       .  S
O104        C111   1.282       .  A
O105       Ni108   1.915       .  S
O105        C110   1.280       .  A
O106       Ni108   1.912       .  S
O106        C109   1.280       .  A
Ni107      Ni108   2.388       .  S
C109        C706   1.477       .  S
C110        C693   1.484       .  S
C111        C661   1.475       .  S
C112        C741   1.480   1_455  S
O113       Ni121   1.924       .  S
O113        C123   1.282       .  A
O114      Ni1097   1.922       .  S
O114        C124   1.281       .  A
O115       Ni121   1.920       .  S
O115        C125   1.280       .  A
O116      Ni1097   1.918       .  S
O116        C126   1.279       .  A
O117      Ni1098   1.921       .  S
O117       C1102   1.284       .  A
O118       Ni122   1.920       .  S
O118       C1101   1.282       .  A
O119       Ni122   1.911       .  S
O119        C124   1.280       .  A
O120      Ni1098   1.910       .  S
O120        C123   1.279       .  A
Ni121      O1090   1.922   1_554  S
Ni121      O1092   1.918       .  S
Ni121     Ni1098   2.384       .  S
Ni122      O1093   1.921       .  S
Ni122      O1096   1.910       .  S
Ni122     Ni1097   2.384       .  S
C123        C626   1.479       .  S
C124        C610   1.483       .  S
C125       O1094   1.282       .  A
C125        C642   1.480       .  S
C126       O1093   1.284       .  A
C126        C594   1.502       .  S
O127       Ni135   1.914       .  S
O127        C137   1.280       .  A
O128       Ni135   1.913       .  S
O128        C138   1.281       .  A
O129       Ni135   1.919       .  S
O129        C139   1.280       .  A
O130       Ni135   1.918       .  S
O130        C140   1.282       .  A
O131       Ni136   1.918       .  S
O131        C140   1.280       .  A
O132       Ni136   1.915       .  S
O132        C139   1.282       .  A
O133       Ni136   1.920       .  S
O133        C138   1.280       .  A
O134       Ni136   1.920       .  S
O134        C137   1.281       .  A
Ni135      Ni136   2.383       .  S
C137        C613   1.485       .  S
C138        C629   1.479       .  S
C139        C578   1.490       .  S
C140        C562   1.491       .  S
O141       Ni149   1.914       .  S
O141        C151   1.279       .  A
O142      Ni1125   1.910   1_554  S
O142        C152   1.278       .  A
O143       Ni149   1.918       .  S
O143       C1129   1.283       .  A
O144      Ni1125   1.921       .  S
O144        C154   1.281       .  A
O145      Ni1126   1.914       .  S
O145       C1130   1.280       .  A
O146       Ni150   1.917       .  S
O146        C153   1.279       .  A
O147       Ni150   1.917   1_554  S
O147        C152   1.282       .  A
O148      Ni1126   1.919       .  S
O148        C151   1.282       .  A
Ni149      O1118   1.911       .  S
Ni149      O1120   1.921       .  S
Ni149     Ni1126   2.386       .  S
Ni150      O1121   1.914       .  S
Ni150      O1124   1.919       .  S
Ni150     Ni1125   2.386       .  S
C151        C530   1.481       .  S
C152        C549   1.480       .  S
C153       O1119   1.283       .  A
C153        C514   1.485       .  S
C154       O1121   1.280       .  A
C154        C645   1.480   1_556  S
O155       Ni163   1.919       .  S
O155        C165   1.282       .  A
O156       Ni163   1.918       .  S
O156        C166   1.282       .  A
O157       Ni163   1.907       .  S
O157        C167   1.280       .  A
O158       Ni163   1.908       .  S
O158        C168   1.277       .  A
O159       Ni164   1.922       .  S
O159        C168   1.283       .  A
O160       Ni164   1.925       .  S
O160        C167   1.282       .  A
O161       Ni164   1.909       .  S
O161        C166   1.278       .  A
O162       Ni164   1.913       .  S
O162        C165   1.279       .  A
Ni163      Ni164   2.386       .  S
C165        C546   1.482       .  S
C166        C533   1.478       .  S
C167        C498   1.481       .  S
C168        C581   1.486       .  S
O169       Ni177   1.914       .  S
O169       C1155   1.280   1_554  A
O170       Ni177   1.918       .  S
O170        C180   1.282   1_554  A
O171       Ni177   1.916       .  S
O171        C181   1.281   1_554  A
O172       Ni177   1.916       .  S
O172        C182   1.280   1_554  A
O173       Ni178   1.925       .  S
O173       C1158   1.283       .  A
O174       Ni178   1.928       .  S
O174       C1157   1.282       .  A
O175       Ni178   1.922       .  S
O175       C1156   1.281       .  A
O176       Ni178   1.922       .  S
O176        C179   1.282       .  A
Ni177     Ni1154   2.387   1_554  S
Ni178     Ni1153   2.387       .  S
C179       O1145   1.280       .  A
C179       C1183   1.468       .  S
C180       O1151   1.281       .  A
C180        C834   1.490       .  S
C181       O1150   1.282       .  A
C181       C1211   1.473       .  S
C182       O1149   1.283       .  A
C182        C485   1.482       .  S
O183       Ni191   1.926       .  S
O183        C193   1.284       .  A
O184       Ni191   1.926       .  S
O184        C194   1.284       .  A
O185       Ni191   1.907       .  S
O185        C195   1.278       .  A
O186       Ni191   1.910       .  S
O186        C196   1.278       .  A
O187       Ni192   1.926       .  S
O187        C196   1.284       .  A
O188       Ni192   1.923       .  S
O188        C195   1.283       .  A
O189       Ni192   1.903       .  S
O189        C194   1.276       .  A
O190       Ni192   1.905       .  S
O190        C193   1.277       .  A
Ni191      Ni192   2.387       .  S
C193        C249   1.465       .  S
C194        C466   1.491       .  S
C195        C223   1.464       .  S
C196        C821   1.483       .  S
O197       Ni205   1.914       .  S
O197       C1183   1.280       .  A
O198       Ni205   1.915       .  S
O198       C1184   1.280       .  A
O199       Ni205   1.912       .  S
O199        C209   1.280       .  A
O200       Ni205   1.916       .  S
O200        C210   1.281       .  A
O201       Ni206   1.924       .  S
O201       C1186   1.281   1_554  A
O202       Ni206   1.924       .  S
O202       C1185   1.282   1_554  A
O203       Ni206   1.921       .  S
O203        C208   1.282   1_554  A
O204       Ni206   1.921       .  S
O204        C207   1.282   1_554  A
Ni205     Ni1182   2.389       .  S
Ni206     Ni1181   2.389   1_554  S
C207       O1173   1.280       .  A
C207       C1155   1.467       .  S
C208       O1174   1.280       .  A
C208        C914   1.480   1_556  S
C209       O1178   1.282       .  A
C209       C1241   1.468       .  S
C210       O1177   1.281       .  A
C210        C674   1.481       .  S
O211       Ni219   1.921       .  S
O211        C221   1.282       .  A
O212       Ni219   1.924       .  S
O212        C222   1.284       .  A
O213       Ni219   1.915       .  S
O213        C223   1.279       .  A
O214       Ni219   1.917       .  S
O214        C224   1.279       .  A
O215       Ni220   1.919       .  S
O215        C224   1.283       .  A
O216       Ni220   1.915       .  S
O216        C223   1.281       .  A
O217       Ni220   1.912       .  S
O217        C222   1.278       .  A
O218       Ni220   1.911       .  S
O218        C221   1.279       .  A
Ni219      Ni220   2.385       .  S
C221        C277   1.466       .  S
C222        C658   1.492       .  S
C224        C885   1.496       .  S
O225       Ni233   1.913       .  S
O225       C1211   1.280   1_554  A
O226       Ni233   1.913       .  S
O226        C236   1.281   1_554  A
O227       Ni233   1.919       .  S
O227        C237   1.282   1_554  A
O228       Ni233   1.919       .  S
O228        C238   1.280   1_554  A
O229       Ni234   1.920       .  S
O229       C1214   1.281       .  A
O230       Ni234   1.922       .  S
O230       C1213   1.281       .  A
O231       Ni234   1.931       .  S
O231       C1212   1.283       .  A
O232       Ni234   1.931       .  S
O232        C235   1.284       .  A
Ni233     Ni1210   2.386   1_554  S
Ni234     Ni1209   2.386       .  S
C235       O1201   1.280       .  A
C235       C1157   1.473       .  S
C236       O1207   1.283       .  A
C236        C453   1.503   1_556  S
C237       O1206   1.281       .  A
C237       C1239   1.472       .  S
C238       O1205   1.281       .  A
C238        C597   1.474       .  S
O239       Ni247   1.918       .  S
O239        C249   1.283       .  A
O240       Ni247   1.919       .  S
O240        C250   1.282       .  A
O241       Ni247   1.922       .  S
O241        C251   1.281       .  A
O242       Ni247   1.922       .  S
O242        C252   1.281       .  A
O243       Ni248   1.917       .  S
O243        C252   1.280       .  A
O244       Ni248   1.914       .  S
O244        C251   1.281       .  A
O245       Ni248   1.913       .  S
O245        C250   1.279       .  A
O246       Ni248   1.913       .  S
O246        C249   1.279       .  A
Ni247      Ni248   2.389       .  S
C250        C434   1.486       .  S
C251        C279   1.468       .  S
C252        C565   1.477       .  S
O253       Ni261   1.913       .  S
O253       C1239   1.279   1_554  A
O254       Ni261   1.911       .  S
O254        C264   1.279   1_554  A
O255       Ni261   1.924       .  S
O255        C265   1.282   1_554  A
O256       Ni261   1.930       .  S
O256        C266   1.286   1_554  A
O257       Ni262   1.917       .  S
O257       C1242   1.278       .  A
O258       Ni262   1.912       .  S
O258       C1241   1.280       .  A
O259       Ni262   1.933       .  S
O259       C1240   1.284       .  A
O260       Ni262   1.929       .  S
O260        C263   1.284       .  A
Ni261     Ni1238   2.387   1_554  S
Ni262     Ni1237   2.387       .  S
C263       O1229   1.279       .  A
C263       C1213   1.472       .  S
C264       O1235   1.284       .  A
C264        C517   1.483       .  S
C265       O1234   1.280       .  A
C265       C1185   1.468       .  S
C266       O1233   1.278       .  A
C266        C757   1.489       .  S
O267       Ni275   1.915       .  S
O267        C277   1.281       .  A
O268       Ni275   1.917       .  S
O268        C278   1.283       .  A
O269       Ni275   1.908       .  S
O269        C279   1.279       .  A
O270       Ni275   1.906       .  S
O270        C280   1.277       .  A
O271       Ni276   1.926       .  S
O271        C280   1.283       .  A
O272       Ni276   1.927       .  S
O272        C279   1.283       .  A
O273       Ni276   1.922       .  S
O273        C278   1.280       .  A
O274       Ni276   1.917       .  S
O274        C277   1.280       .  A
Ni275      Ni276   2.387       .  S
C278        C725   1.492       .  S
C280        C501   1.480       .  S
O281       Ni289   1.920       .  S
O281        C291   1.280       .  A
O282      Ni1265   1.922       .  S
O282        C292   1.282       .  A
O283       Ni289   1.925       .  S
O283        C293   1.282       .  A
O284      Ni1265   1.921       .  S
O284        C294   1.282       .  A
O285      Ni1266   1.918   1_556  S
O285       C1270   1.280       .  A
O286       Ni290   1.915       .  S
O286       C1269   1.282       .  A
O287       Ni290   1.915       .  S
O287        C292   1.279       .  A
O288      Ni1266   1.917       .  S
O288        C291   1.282       .  A
Ni289      O1258   1.922   1_554  S
Ni289      O1260   1.921   1_554  S
Ni289     Ni1266   2.386       .  S
Ni290      O1261   1.918       .  S
Ni290      O1264   1.917       .  S
Ni290     Ni1265   2.386       .  S
C291        C402   1.484       .  S
C292        C386   1.480       .  S
C293       O1262   1.282       .  A
C293        C421   1.487   1_455  S
C294       O1261   1.280       .  A
C294       C1458   1.486       .  S
O295       Ni303   1.913       .  S
O295        C305   1.278       .  A
O296       Ni303   1.912       .  S
O296        C306   1.280       .  A
O297       Ni303   1.925       .  S
O297        C307   1.285       .  A
O298       Ni303   1.922       .  S
O298        C308   1.281       .  A
O299       Ni304   1.908       .  S
O299        C308   1.279       .  A
O300       Ni304   1.906       .  S
O300        C307   1.276       .  A
O301       Ni304   1.925       .  S
O301        C306   1.282       .  A
O302       Ni304   1.925       .  S
O302        C305   1.283       .  A
Ni303      Ni304   2.385       .  S
C305        C389   1.480       .  S
C306        C405   1.483       .  S
C307        C370   1.498   1_455  S
C308        C469   1.472       .  S
O309      Ni1293   1.912       .  S
O309        C319   1.279       .  A
O310       Ni317   1.917       .  S
O310        C320   1.280       .  A
O311      Ni1293   1.921       .  S
O311       C1297   1.281       .  A
O312       Ni317   1.918       .  S
O312        C322   1.281       .  A
O313      Ni1294   1.920       .  S
O313       C1298   1.282       .  A
O314       Ni318   1.918       .  S
O314        C321   1.280       .  A
O315       Ni318   1.921       .  S
O315        C320   1.281       .  A
O316      Ni1294   1.916       .  S
O316        C319   1.282       .  A
Ni317      O1285   1.912   1_554  S
Ni317      O1287   1.921       .  S
Ni317      Ni318   2.387       .  S
Ni318      O1289   1.920       .  S
Ni318      O1292   1.916   1_554  S
C319        C338   1.480       .  S
C320        C357   1.480       .  S
C321       O1287   1.280       .  A
C321        C450   1.477       .  S
C322       O1289   1.282       .  A
C322        C418   1.484       .  S
O323       Ni331   1.918       .  S
O323        C333   1.281       .  A
O324       Ni331   1.916       .  S
O324        C334   1.281       .  A
O325       Ni331   1.913       .  S
O325        C335   1.280       .  A
O326       Ni331   1.913       .  S
O326        C336   1.282       .  A
O327       Ni332   1.920       .  S
O327        C336   1.280       .  A
O328       Ni332   1.918       .  S
O328        C335   1.281       .  A
O329       Ni332   1.915       .  S
O329        C334   1.280       .  A
O330       Ni332   1.920       .  S
O330        C333   1.281       .  A
Ni331      Ni332   2.384       .  S
C333        C354   1.479       .  S
C334        C341   1.481       .  S
C335        C437   1.476       .  S
C336        C373   1.501       .  S
C337        C338   1.403       .  A
C337        C342   1.404       .  A
C337        H344   1.084       .  S
C338        C339   1.419       .  A
C339        C340   1.406       .  A
C339        C346   1.519       .  S
C340        C341   1.403       .  A
C340        H345   1.083       .  S
C341        C342   1.418       .  A
C342        C343   1.518       .  S
C343        F347   1.385       .  S
C343        F348   1.381       .  S
C343        F349   1.383       .  S
C346        F350   1.381       .  S
C346        F351   1.383       .  S
C346        F352   1.384       .  S
C353        C354   1.402       .  A
C353        C358   1.407       .  A
C353        H360   1.083       .  S
C354        C355   1.417       .  A
C355        C356   1.408       .  A
C355        C362   1.518       .  S
C356        C357   1.403       .  A
C356        H361   1.082       .  S
C357        C358   1.418       .  A
C358        C359   1.520       .  S
C359        F363   1.385       .  S
C359        F364   1.383       .  S
C359        F365   1.382       .  S
C362        F366   1.382       .  S
C362        F367   1.382       .  S
C362        F368   1.384       .  S
C369        C370   1.407       .  A
C369        C374   1.408       .  A
C369        H376   1.082       .  S
C370        C371   1.427       .  A
C371        C372   1.407       .  A
C371        C378   1.525       .  S
C372        C373   1.407       .  A
C372        H377   1.081       .  S
C373        C374   1.424       .  A
C374        C375   1.519       .  S
C375        F379   1.385       .  S
C375        F380   1.380       .  S
C375        F381   1.378       .  S
C378        F382   1.384   1_655  S
C378        F383   1.382   1_655  S
C378        F384   1.385       .  S
C385        C386   1.403       .  A
C385        C390   1.407       .  A
C385        H392   1.083       .  S
C386        C387   1.417       .  A
C387        C388   1.408       .  A
C387        C394   1.519       .  S
C388        C389   1.403       .  A
C388        H393   1.083       .  S
C389        C390   1.418       .  A
C390        C391   1.519       .  S
C391        F395   1.385       .  S
C391        F396   1.381       .  S
C391        F397   1.381       .  S
C394        F398   1.383       .  S
C394        F399   1.382       .  S
C394        F400   1.385       .  S
C401        C402   1.405       .  A
C401        C406   1.407       .  A
C401        H408   1.083       .  S
C402        C403   1.419       .  A
C403        C404   1.407       .  A
C403        C410   1.520       .  S
C404        C405   1.405       .  A
C404        H409   1.083       .  S
C405        C406   1.417       .  A
C406        C407   1.519       .  S
C407        F411   1.385       .  S
C407        F412   1.383       .  S
C407        F413   1.382       .  S
C410        F414   1.380       .  S
C410        F415   1.383       .  S
C410        F416   1.385       .  S
C417        C418   1.404       .  A
C417        C422   1.410       .  A
C417        H424   1.083       .  S
C418       C1395   1.420   1_554  A
C419        C420   1.405       .  A
C419       C1394   1.420       .  A
C419        C426   1.520       .  S
C420       C1397   1.403       .  A
C420        H425   1.083       .  S
C421        C422   1.421       .  A
C421       C1396   1.403   1_554  A
C422        C423   1.516       .  S
C423        F427   1.385       .  S
C423        F429   1.383   1_655  S
C423       F1404   1.382   1_655  S
C426        F430   1.383       .  S
C426        F432   1.385       .  S
C426       F1407   1.382       .  S
F428       C1399   1.382   1_455  S
F431       C1402   1.382       .  S
C433        C434   1.408       .  A
C433        C438   1.408       .  A
C433        H440   1.083       .  S
C434        C435   1.422       .  A
C435        C436   1.405       .  A
C435        C442   1.521       .  S
C436        C437   1.400       .  A
C436        H441   1.083       .  S
C437        C438   1.414       .  A
C438        C439   1.519       .  S
C439        F443   1.384       .  S
C439        F444   1.383       .  S
C439        F445   1.383       .  S
C442        F446   1.383       .  S
C442        F447   1.384       .  S
C442        F448   1.385       .  S
C449        C454   1.411       .  A
C449       C1426   1.400       .  A
C449        H456   1.082       .  S
C450        C451   1.407       .  A
C450       C1425   1.400   1_554  A
C451        C452   1.407       .  A
C451        C458   1.516       .  S
C452        C453   1.414       .  A
C452        H457   1.082       .  S
C453       C1430   1.428   1_554  A
C454       C1429   1.428       .  A
C454        C455   1.521       .  S
C455        F461   1.383       .  S
C455       F1435   1.385       .  S
C455       F1436   1.384       .  S
C458        F462   1.383       .  S
C458       F1439   1.383       .  S
C458       F1440   1.384       .  S
F459       C1431   1.385       .  S
F460       C1431   1.384       .  S
F463       C1434   1.383       .  S
F464       C1434   1.384       .  S
C465        C466   1.410       .  A
C465        C470   1.408       .  A
C465        H472   1.083       .  S
C466        C467   1.427       .  A
C467        C468   1.403       .  A
C467        C474   1.523       .  S
C468        C469   1.396       .  A
C468        H473   1.082       .  S
C469        C470   1.412       .  A
C470        C471   1.517       .  S
C471        F475   1.384       .  S
C471        F476   1.383       .  S
C471        F477   1.383       .  S
C474        F478   1.383       .  S
C474        F479   1.384       .  S
C474        F480   1.385       .  S
C481        C482   1.404   1_554  A
C481        C486   1.407       .  A
C481        H488   1.083       .  S
C482       C1270   1.486       .  S
C482       C1459   1.421       .  A
C483        C484   1.409       .  A
C483       C1458   1.421       .  A
C483        C490   1.520       .  S
C484       C1461   1.402       .  A
C484        H489   1.083       .  S
C485        C486   1.418   1_556  A
C485       C1460   1.402       .  A
C486        C487   1.519       .  S
C487        F491   1.385       .  S
C487        F493   1.382       .  S
C487       F1468   1.383       .  S
C490        F494   1.383       .  S
C490        F496   1.385       .  S
C490       F1471   1.382       .  S
F492       C1463   1.383       .  S
F495       C1466   1.382       .  S
C497        C498   1.404       .  A
C497        C502   1.404       .  A
C497        H504   1.083       .  S
C498        C499   1.419       .  A
C499        C500   1.409       .  A
C499        C506   1.519       .  S
C500        C501   1.404       .  A
C500        H505   1.083       .  S
C501        C502   1.418       .  A
C502        C503   1.521       .  S
C503        F507   1.385       .  S
C503        F508   1.382       .  S
C503        F509   1.383       .  S
C506        F510   1.382       .  S
C506        F511   1.384       .  S
C506        F512   1.385       .  S
C513        C514   1.403       .  A
C513        C518   1.403       .  A
C513        H520   1.081       .  S
C514       C1491   1.422   1_556  A
C515        C516   1.410       .  A
C515       C1490   1.421       .  A
C515        C522   1.520       .  S
C516       C1493   1.404       .  A
C516        H521   1.083       .  S
C517        C518   1.413       .  A
C517       C1492   1.404   1_556  A
C518        C519   1.509       .  S
C519        F525   1.381       .  S
C519       F1499   1.385       .  S
C519       F1500   1.382       .  S
C522        F526   1.379       .  S
C522       F1503   1.383       .  S
C522       F1504   1.385       .  S
F523       C1495   1.385       .  S
F524       C1495   1.382       .  S
F527       C1498   1.383       .  S
F528       C1498   1.385       .  S
C529        C530   1.403       .  A
C529        C534   1.407       .  A
C529        H536   1.083       .  S
C530        C531   1.420       .  A
C531        C532   1.404       .  A
C531        C538   1.517       .  S
C532        C533   1.401       .  A
C532        H537   1.083       .  S
C533        C534   1.419       .  A
C534        C535   1.520       .  S
C535        F539   1.384       .  S
C535        F540   1.381       .  S
C535        F541   1.383       .  S
C538        F542   1.380       .  S
C538        F543   1.382       .  S
C538        F544   1.385       .  S
C545        C546   1.403       .  A
C545        C550   1.406       .  A
C545        H552   1.083       .  S
C546        C547   1.420       .  A
C547        C548   1.406       .  A
C547        C554   1.520       .  S
C548        C549   1.403       .  A
C548        H553   1.083       .  S
C549        C550   1.419       .  A
C550        C551   1.520       .  S
C551        F555   1.385       .  S
C551        F556   1.383       .  S
C551        F557   1.383       .  S
C554        F558   1.383       .  S
C554        F559   1.380       .  S
C554        F560   1.385       .  S
C561        C562   1.407       .  A
C561        C566   1.406       .  A
C561        H568   1.083       .  S
C562        C563   1.425       .  A
C563        C564   1.410       .  A
C563        C570   1.520       .  S
C564        C565   1.400       .  A
C564        H569   1.083       .  S
C565        C566   1.415       .  A
C566        C567   1.519       .  S
C567        F571   1.385       .  S
C567        F572   1.383       .  S
C567        F573   1.382       .  S
C570        F574   1.383       .  S
C570        F575   1.384       .  S
C570        F576   1.385       .  S
C577        C578   1.405       .  A
C577        C582   1.406   1_545  A
C577        H584   1.082       .  S
C578        C579   1.422       .  A
C579        C580   1.406   1_545  A
C579        C586   1.517       .  S
C580        C581   1.403       .  A
C580        H585   1.082       .  S
C581        C582   1.422       .  A
C582        C583   1.522       .  S
C583        F587   1.385       .  S
C583        F588   1.383       .  S
C583        F589   1.383       .  S
C586        F590   1.383       .  S
C586        F591   1.377       .  S
C586        F592   1.385       .  S
C593        C594   1.412       .  A
C593        C598   1.406       .  A
C593        H600   1.082       .  S
C594       C1571   1.431       .  A
C595        C596   1.411       .  A
C595       C1570   1.431       .  A
C595        C602   1.521       .  S
C596        C597   1.398   1_554  A
C596        H601   1.083       .  S
C597       C1574   1.408       .  A
C598       C1573   1.408       .  A
C598        C599   1.518       .  S
C599        F603   1.384       .  S
C599        F605   1.383       .  S
C599       F1580   1.383       .  S
C602        F606   1.381       .  S
C602        F608   1.384       .  S
C602       F1583   1.383   1_554  S
F604       C1575   1.383   1_554  S
F607       C1578   1.383       .  S
C609        C610   1.404       .  A
C609        C614   1.406       .  A
C609        H616   1.083       .  S
C610        C611   1.418       .  A
C611        C612   1.408       .  A
C611        C618   1.519       .  S
C612        C613   1.406       .  A
C612        H617   1.083       .  S
C613        C614   1.419       .  A
C614        C615   1.520       .  S
C615        F619   1.385       .  S
C615        F620   1.383       .  S
C615        F621   1.383       .  S
C618        F622   1.383       .  S
C618        F623   1.380       .  S
C618        F624   1.385       .  S
C625        C626   1.404       .  A
C625        C630   1.408       .  A
C625        H632   1.083       .  S
C626        C627   1.417       .  A
C627        C628   1.405       .  A
C627        C634   1.517       .  S
C628        C629   1.402       .  A
C628        H633   1.083       .  S
C629        C630   1.418       .  A
C630        C631   1.519       .  S
C631        F635   1.385       .  S
C631        F636   1.383       .  S
C631        F637   1.382       .  S
C634        F638   1.382       .  S
C634        F639   1.383       .  S
C634        F640   1.385       .  S
C641        C642   1.403       .  A
C641        C646   1.408   1_545  A
C641        H648   1.083       .  S
C642       C1619   1.419   1_554  A
C643        C644   1.408   1_545  A
C643       C1618   1.419       .  A
C643        C650   1.519       .  S
C644       C1621   1.403       .  A
C644        H649   1.083       .  S
C645        C646   1.418       .  A
C645       C1620   1.403   1_554  A
C646        C647   1.519       .  S
C647        F651   1.385       .  S
C647        F653   1.383       .  S
C647       F1628   1.382       .  S
C650        F654   1.383       .  S
C650        F656   1.385       .  S
C650       F1631   1.382       .  S
F652       C1623   1.382       .  S
F655       C1626   1.382       .  S
C657        C658   1.408       .  A
C657        C662   1.406       .  A
C657        H664   1.083       .  S
C658        C659   1.427       .  A
C659        C660   1.408       .  A
C659        C666   1.521       .  S
C660        C661   1.398       .  A
C660        H665   1.083       .  S
C661        C662   1.413       .  A
C662        C663   1.519       .  S
C663        F667   1.384       .  S
C663        F668   1.383       .  S
C663        F669   1.382       .  S
C666        F670   1.384       .  S
C666        F671   1.383       .  S
C666        F672   1.385       .  S
C673        C678   1.407       .  A
C673       C1650   1.402       .  A
C673        H680   1.083       .  S
C674        C675   1.416       .  A
C674       C1649   1.402       .  A
C675        C676   1.408       .  A
C675        C682   1.517       .  S
C676       C1653   1.406       .  A
C676        H681   1.083       .  S
C677        C678   1.422       .  A
C677       C1652   1.406   1_556  A
C678        C679   1.520       .  S
C679        F685   1.380       .  S
C679       F1659   1.385       .  S
C679       F1660   1.383       .  S
C682        F686   1.382       .  S
C682       F1663   1.382       .  S
C682       F1664   1.385       .  S
F683       C1655   1.385       .  S
F684       C1655   1.383       .  S
F687       C1658   1.382       .  S
F688       C1658   1.385       .  S
C689        C690   1.404       .  A
C689        C694   1.406       .  A
C689        H696   1.083       .  S
C690        C691   1.419       .  A
C691        C692   1.406       .  A
C691        C698   1.521       .  S
C692        C693   1.405       .  A
C692        H697   1.083       .  S
C693        C694   1.420       .  A
C694        C695   1.520       .  S
C695        F699   1.378       .  S
C695        F700   1.383       .  S
C695        F701   1.385       .  S
C698        F702   1.384       .  S
C698        F703   1.383       .  S
C698        F704   1.385       .  S
C705        C706   1.403       .  A
C705        C710   1.405       .  A
C705        H712   1.083       .  S
C706        C707   1.417       .  A
C707        C708   1.407       .  A
C707        C714   1.519       .  S
C708        C709   1.403       .  A
C708        H713   1.083       .  S
C709        C710   1.416       .  A
C710        C711   1.517       .  S
C711        F715   1.384       .  S
C711        F716   1.379       .  S
C711        F717   1.383       .  S
C714        F718   1.383       .  S
C714        F719   1.382       .  S
C714        F720   1.385       .  S
C721        C722   1.401       .  A
C721        C726   1.411       .  A
C721        H728   1.083       .  S
C722        C723   1.414       .  A
C723        C724   1.405       .  A
C723        C730   1.519       .  S
C724        C725   1.407       .  A
C724        H729   1.082       .  S
C725        C726   1.424       .  A
C726        C727   1.520       .  S
C727        F731   1.384       .  S
C727        F732   1.383       .  S
C727        F733   1.383       .  S
C730        F734   1.382       .  S
C730        F735   1.382       .  S
C730        F736   1.385       .  S
C737        C738   1.405       .  A
C737        C742   1.405       .  A
C737        H744   1.082       .  S
C738        C739   1.423       .  A
C739        C740   1.407       .  A
C739        C746   1.521       .  S
C740        C741   1.403       .  A
C740        H745   1.085       .  S
C741        C742   1.418       .  A
C742        C743   1.521       .  S
C743        F747   1.382   1_655  S
C743        F748   1.382   1_655  S
C743        F749   1.385       .  S
C746        F750   1.384       .  S
C746        F751   1.379       .  S
C746        F752   1.383       .  S
C753        C758   1.406       .  A
C753       C1730   1.403       .  A
C753        H760   1.085       .  S
C754        C755   1.420       .  A
C754       C1729   1.403       .  A
C755        C756   1.408       .  A
C755        C762   1.512   1_556  S
C756        C757   1.403       .  A
C756        H761   1.084   1_556  S
C757       C1734   1.426       .  A
C758       C1733   1.426       .  A
C758        C759   1.518       .  S
C759        F763   1.384       .  S
C759        F765   1.373       .  S
C759       F1740   1.383       .  S
C762        F766   1.374       .  S
C762        F768   1.384       .  S
C762       F1743   1.382   1_554  S
F764       C1735   1.383       .  S
F767       C1738   1.382       .  S
C769        C770   1.402       .  A
C769        C774   1.406       .  A
C769        H776   1.083       .  S
C770        C771   1.418       .  A
C771        C772   1.411       .  A
C771        C778   1.519       .  S
C772        C773   1.406       .  A
C772        H777   1.083       .  S
C773        C774   1.417       .  A
C774        C775   1.517       .  S
C775        F779   1.385       .  S
C775        F780   1.382       .  S
C775        F781   1.382       .  S
C778        F782   1.383       .  S
C778        F783   1.382       .  S
C778        F784   1.385       .  S
C785        C786   1.406       .  A
C785        C790   1.413       .  A
C785        H792   1.082       .  S
C786        C787   1.416       .  A
C787        C788   1.404       .  A
C787        C794   1.511       .  S
C788        C789   1.401       .  A
C788        H793   1.083       .  S
C789        C790   1.420       .  A
C790        C791   1.519       .  S
C791        F795   1.382       .  S
C791        F796   1.385       .  S
C791        F797   1.382       .  S
C794        F798   1.381       .  S
C794        F799   1.383       .  S
C794        F800   1.384       .  S
C801        C802   1.403   1_654  A
C801        C806   1.410       .  A
C801        H808   1.083       .  S
C802       C1779   1.418   1_455  A
C803        C804   1.408       .  A
C803       C1778   1.418   1_655  A
C803        C810   1.519       .  S
C804       C1781   1.403       .  A
C804        H809   1.083       .  S
C805        C806   1.417   1_556  A
C805       C1780   1.403       .  A
C806        C807   1.517       .  S
C807        F811   1.385       .  S
C807        F812   1.383       .  S
C807       F1789   1.382       .  S
C810        F815   1.383   1_655  S
C810        F816   1.385       .  S
C810       F1790   1.382   1_655  S
F813       C1783   1.382       .  S
F814       C1786   1.382   1_455  S
C817        C818   1.402       .  A
C817        C822   1.407       .  A
C817        H824   1.083       .  S
C818        C819   1.420       .  A
C819        C820   1.408       .  A
C819        C826   1.520       .  S
C820        C821   1.403       .  A
C820        H825   1.083       .  S
C821        C822   1.420       .  A
C822        C823   1.520       .  S
C823        F827   1.385       .  S
C823        F828   1.383       .  S
C823        F829   1.383       .  S
C826        F830   1.382       .  S
C826        F831   1.383       .  S
C826        F832   1.385       .  S
C833        C834   1.407   1_554  A
C833        C838   1.407       .  A
C833        H840   1.083       .  S
C834       C1811   1.422       .  A
C835        C836   1.409       .  A
C835       C1810   1.422       .  A
C835        C842   1.520       .  S
C836       C1813   1.402       .  A
C836        H841   1.083       .  S
C837        C838   1.413   1_556  A
C837       C1812   1.402       .  A
C838        C839   1.516       .  S
C839        F843   1.385       .  S
C839        F844   1.384       .  S
C839       F1821   1.382       .  S
C842        F847   1.382       .  S
C842        F848   1.385       .  S
C842       F1822   1.384       .  S
F845       C1815   1.382       .  S
F846       C1818   1.384       .  S
C849        C850   1.402       .  A
C849        C854   1.403       .  A
C849        H856   1.083       .  S
C850        C851   1.416       .  A
C851        C852   1.404       .  A
C851        C858   1.520       .  S
C852        C853   1.405       .  A
C852        H857   1.083       .  S
C853        C854   1.419       .  A
C854        C855   1.518       .  S
C855        F859   1.385       .  S
C855        F860   1.380       .  S
C855        F861   1.381       .  S
C858        F862   1.383       .  S
C858        F863   1.382       .  S
C858        F864   1.385       .  S
C865        C866   1.407       .  A
C865        C870   1.405       .  A
C865        H872   1.082       .  S
C866        C867   1.423       .  A
C867        C868   1.406       .  A
C867        C874   1.522       .  S
C868        C869   1.408       .  A
C868        H873   1.081       .  S
C869        C870   1.422       .  A
C870        C871   1.520       .  S
C871        F875   1.385       .  S
C871        F876   1.383       .  S
C871        F877   1.381       .  S
C874        F878   1.383       .  S
C874        F879   1.380       .  S
C874        F880   1.385       .  S
C881        C882   1.398       .  A
C881        C886   1.408       .  A
C881        H888   1.083       .  S
C882        C883   1.412       .  A
C883        C884   1.407       .  A
C883        C890   1.519       .  S
C884        C885   1.410       .  A
C884        H889   1.082       .  S
C885        C886   1.428       .  A
C886        C887   1.521       .  S
C887        F891   1.385       .  S
C887        F892   1.383       .  S
C887        F893   1.384       .  S
C890        F894   1.382       .  S
C890        F895   1.384       .  S
C890        F896   1.385       .  S
C897        C898   1.404       .  A
C897        C902   1.406   1_565  A
C897        H904   1.080       .  S
C898        C899   1.420       .  A
C899        C900   1.407   1_565  A
C899        C906   1.521       .  S
C900        C901   1.404       .  A
C900        H905   1.081       .  S
C901        C902   1.416       .  A
C902        C903   1.519       .  S
C903        F907   1.385       .  S
C903        F908   1.384       .  S
C903        F909   1.382       .  S
C906        F910   1.380       .  S
C906        F911   1.382       .  S
C906        F912   1.385   1_565  S
C913        C914   1.403       .  A
C913        C918   1.408       .  A
C913        H920   1.084       .  S
C914       C1891   1.418   1_554  A
C915        C916   1.404       .  A
C915       C1890   1.418       .  A
C915        C922   1.520       .  S
C916        C917   1.402       .  A
C916        H921   1.083       .  S
C917       C1894   1.421       .  A
C918       C1893   1.421       .  A
C918        C919   1.521       .  S
C919        F925   1.382       .  S
C919       F1899   1.385       .  S
C919       F1900   1.382       .  S
C922        F926   1.385       .  S
C922       F1903   1.382       .  S
C922       F1904   1.383       .  S
F923       C1895   1.385       .  S
F924       C1895   1.382       .  S
F927       C1898   1.382       .  S
F928       C1898   1.383       .  S
C929        C930   1.402       .  A
C929        C934   1.404       .  A
C929        H936   1.083       .  S
C930        C931   1.421       .  A
C931        C932   1.406       .  A
C931        C938   1.521       .  S
C932        C933   1.403       .  A
C932        H937   1.083       .  S
C933        C934   1.420       .  A
C934        C935   1.517       .  S
C935        F939   1.385       .  S
C935        F940   1.381       .  S
C935        F941   1.380       .  S
C938        F942   1.383       .  S
C938        F943   1.383       .  S
C938        F944   1.385       .  S
C945        C946   1.403       .  A
C945        C950   1.406       .  A
C945        H952   1.083       .  S
C946        C947   1.420       .  A
C947        C948   1.404       .  A
C947        C954   1.519       .  S
C948        C949   1.402       .  A
C948        H953   1.083       .  S
C949        C950   1.421       .  A
C950        C951   1.520       .  S
C951        F955   1.385       .  S
C951        F956   1.377       .  S
C951        F957   1.382       .  S
C954        F958   1.380       .  S
C954        F959   1.383       .  S
C954        F960   1.385       .  S
C961        C966   1.408   1_565  A
C961       C1938   1.405       .  A
C961        H968   1.083       .  S
C962        C963   1.419   1_566  A
C962       C1937   1.405       .  A
C963        C964   1.409       .  A
C963        C970   1.519   1_545  S
C964        C965   1.406   1_554  A
C964        H969   1.083       .  S
C965       C1942   1.419       .  A
C966       C1941   1.419       .  A
C966        C967   1.520       .  S
C967        F971   1.385       .  S
C967        F972   1.384       .  S
C967       F1949   1.382       .  S
C970        F975   1.384       .  S
C970        F976   1.385   1_565  S
C970       F1950   1.381       .  S
F973       C1943   1.382       .  S
F974       C1946   1.381       .  S
O978       Ni985   1.917       .  S
O979       Ni985   1.918       .  S
O979        C989   1.282       .  A
O980        C990   1.282       .  A
O981        C990   1.278       .  A
O982       Ni986   1.913       .  S
O982        C989   1.279       .  A
O983        C988   1.282       .  A
O984       Ni986   1.920       .  S
O984        C987   1.283       .  A
Ni985      Ni986   2.385       .  S
C987       C1893   1.482   1_556  S
C988       C1938   1.487       .  S
C989       C1909   1.482       .  S
C990       C1925   1.481       .  S
O991       Ni999   1.916       .  S
O991       C1001   1.282       .  A
O992       Ni999   1.916       .  S
O992       C1002   1.282       .  A
O993       Ni999   1.916       .  S
O993       C1003   1.280       .  A
O994       Ni999   1.915       .  S
O994       C1004   1.280       .  A
O995      Ni1000   1.920       .  S
O995       C1004   1.281       .  A
O996      Ni1000   1.919       .  S
O996       C1003   1.282       .  A
O997      Ni1000   1.911       .  S
O997       C1002   1.279       .  A
O998      Ni1000   1.909       .  S
O998       C1001   1.278       .  A
Ni999     Ni1000   2.387       .  S
C1001      C1906   1.479       .  S
C1002      C1922   1.482       .  S
C1003      C1874   1.483       .  S
C1004      C1858   1.473       .  S
O1005     Ni1013   1.914       .  S
O1005      C1015   1.279       .  A
O1006      C1016   1.279       .  A
O1007     Ni1013   1.926       .  S
O1008      C1018   1.282       .  A
O1010     Ni1014   1.915       .  S
O1010      C1017   1.280       .  A
O1011     Ni1014   1.909       .  S
O1011      C1016   1.282       .  A
O1012      C1015   1.279       .  A
C1015      C1826   1.474       .  S
C1016      C1842   1.492       .  S
C1017      C1813   1.480       .  S
C1018      C1941   1.487       .  S
O1019     Ni1027   1.912       .  S
O1019      C1029   1.278       .  A
O1020     Ni1027   1.911       .  S
O1020      C1030   1.279       .  A
O1021     Ni1027   1.915       .  S
O1021      C1031   1.280       .  A
O1022     Ni1027   1.913       .  S
O1022      C1032   1.279       .  A
O1023     Ni1028   1.908       .  S
O1023      C1032   1.280       .  A
O1024     Ni1028   1.907       .  S
O1024      C1031   1.280       .  A
O1025     Ni1028   1.921       .  S
O1025      C1030   1.281       .  A
O1026     Ni1028   1.922       .  S
O1026      C1029   1.283       .  A
Ni1027    Ni1028   2.383       .  S
C1029      C1794   1.481       .  S
C1030      C1877   1.482       .  S
C1031      C1845   1.494       .  S
C1032      C1829   1.479       .  S
O1033     Ni1041   1.932       .  S
O1033      C1043   1.284       .  A
O1034      C1044   1.282       .  A
O1035     Ni1041   1.924       .  S
O1035      C1045   1.282       .  A
O1037      C1046   1.285       .  A
O1038     Ni1042   1.922       .  S
O1039     Ni1042   1.914       .  S
O1039      C1044   1.280       .  A
O1040      C1043   1.280       .  A
C1043      C1762   1.490       .  S
C1044      C1746   1.481       .  S
C1045      C1781   1.481       .  S
C1046      C1730   1.495       .  S
O1047     Ni1055   1.911       .  S
O1047      C1057   1.280       .  A
O1048     Ni1055   1.917       .  S
O1048      C1058   1.280       .  A
O1049     Ni1055   1.930       .  S
O1049      C1059   1.284       .  A
O1050     Ni1055   1.927       .  S
O1050      C1060   1.282       .  A
O1051     Ni1056   1.913       .  S
O1051      C1060   1.281       .  A
O1052     Ni1056   1.916       .  S
O1052      C1059   1.279       .  A
O1053     Ni1056   1.922       .  S
O1053      C1058   1.282       .  A
O1054     Ni1056   1.923       .  S
O1054      C1057   1.282       .  A
Ni1055    Ni1056   2.387       .  S
C1057      C1714   1.482       .  S
C1058      C1698   1.477       .  S
C1059      C1749   1.484       .  S
C1060      C1765   1.485       .  S
O1062     Ni1069   1.916       .  S
O1062      C1072   1.279       .  A
O1063     Ni1069   1.917       .  S
O1063      C1073   1.281       .  A
O1064      C1074   1.282       .  A
O1065      C1074   1.279       .  A
O1066     Ni1070   1.913       .  S
O1066      C1073   1.280       .  A
O1068     Ni1070   1.926       .  S
O1068      C1071   1.283       .  A
Ni1069    Ni1070   2.386       .  S
C1071      C1778   1.482       .  S
C1072      C1653   1.487       .  S
C1073      C1685   1.477       .  S
C1074      C1666   1.483       .  S
O1075     Ni1083   1.919       .  S
O1075      C1085   1.281       .  A
O1076     Ni1083   1.916       .  S
O1076      C1086   1.282       .  A
O1077     Ni1083   1.913       .  S
O1077      C1087   1.279       .  A
O1078     Ni1083   1.915       .  S
O1078      C1088   1.280       .  A
O1079     Ni1084   1.920       .  S
O1079      C1088   1.282       .  A
O1080     Ni1084   1.922       .  S
O1080      C1087   1.282       .  A
O1081     Ni1084   1.915       .  S
O1081      C1086   1.280       .  A
O1082     Ni1084   1.912       .  S
O1082      C1085   1.280       .  A
Ni1083    Ni1084   2.388       .  S
C1085      C1682   1.477       .  S
C1086      C1669   1.484       .  S
C1087      C1637   1.475       .  S
C1088      C1717   1.480   1_455  S
O1089     Ni1097   1.925       .  S
O1089      C1099   1.282       .  A
O1090      C1100   1.281       .  A
O1091     Ni1097   1.920       .  S
O1091      C1101   1.280       .  A
O1092      C1102   1.279       .  A
O1094     Ni1098   1.920       .  S
O1095     Ni1098   1.911   1_556  S
O1095      C1100   1.280       .  A
O1096      C1099   1.279       .  A
C1099      C1602   1.479       .  S
C1100      C1586   1.483       .  S
C1101      C1618   1.481       .  S
C1102      C1570   1.502       .  S
O1103     Ni1111   1.913       .  S
O1103      C1113   1.280       .  A
O1104     Ni1111   1.913       .  S
O1104      C1114   1.281       .  A
O1105     Ni1111   1.919       .  S
O1105      C1115   1.280       .  A
O1106     Ni1111   1.918       .  S
O1106      C1116   1.282       .  A
O1107     Ni1112   1.918       .  S
O1107      C1116   1.280       .  A
O1108     Ni1112   1.916       .  S
O1108      C1115   1.282       .  A
O1109     Ni1112   1.920       .  S
O1109      C1114   1.280       .  A
O1110     Ni1112   1.920       .  S
O1110      C1113   1.281       .  A
Ni1111    Ni1112   2.383       .  S
C1113      C1589   1.485       .  S
C1114      C1605   1.479       .  S
C1115      C1554   1.490       .  S
C1116      C1538   1.491       .  S
O1117     Ni1125   1.914       .  S
O1117      C1127   1.279       .  A
O1118      C1128   1.278       .  A
O1119     Ni1125   1.918       .  S
O1120      C1130   1.281       .  A
O1122     Ni1126   1.917       .  S
O1122      C1129   1.279       .  A
O1123     Ni1126   1.916       .  S
O1123      C1128   1.282       .  A
O1124      C1127   1.282       .  A
C1127      C1506   1.481       .  S
C1128      C1525   1.480       .  S
C1129      C1490   1.485       .  S
C1130      C1621   1.480       .  S
O1131     Ni1139   1.919       .  S
O1131      C1141   1.282       .  A
O1132     Ni1139   1.918       .  S
O1132      C1142   1.282       .  A
O1133     Ni1139   1.907       .  S
O1133      C1143   1.280       .  A
O1134     Ni1139   1.907       .  S
O1134      C1144   1.277       .  A
O1135     Ni1140   1.921       .  S
O1135      C1144   1.283       .  A
O1136     Ni1140   1.925       .  S
O1136      C1143   1.282       .  A
O1137     Ni1140   1.908       .  S
O1137      C1142   1.278       .  A
O1138     Ni1140   1.913       .  S
O1138      C1141   1.279       .  A
Ni1139    Ni1140   2.386       .  S
C1141      C1522   1.482       .  S
C1142      C1509   1.477       .  S
C1143      C1474   1.481       .  S
C1144      C1557   1.486       .  S
O1145     Ni1153   1.914       .  S
O1146     Ni1153   1.917       .  S
O1146      C1156   1.282       .  A
O1147     Ni1153   1.916       .  S
O1147      C1157   1.281       .  A
O1148     Ni1153   1.915       .  S
O1148      C1158   1.280       .  A
O1149     Ni1154   1.925       .  S
O1150     Ni1154   1.928       .  S
O1151     Ni1154   1.922       .  S
O1152     Ni1154   1.921       .  S
O1152      C1155   1.282       .  A
C1156      C1810   1.490       .  S
C1158      C1461   1.482       .  S
O1159     Ni1167   1.926       .  S
O1159      C1169   1.284       .  A
O1160     Ni1167   1.926       .  S
O1160      C1170   1.285       .  A
O1161     Ni1167   1.907       .  S
O1161      C1171   1.278       .  A
O1162     Ni1167   1.910       .  S
O1162      C1172   1.278       .  A
O1163     Ni1168   1.927       .  S
O1163      C1172   1.284       .  A
O1164     Ni1168   1.923       .  S
O1164      C1171   1.283       .  A
O1165     Ni1168   1.903       .  S
O1165      C1170   1.276       .  A
O1166     Ni1168   1.905       .  S
O1166      C1169   1.277       .  A
Ni1167    Ni1168   2.387       .  S
C1169      C1225   1.465       .  S
C1170      C1442   1.491       .  S
C1171      C1199   1.464       .  S
C1172      C1797   1.483       .  S
O1173     Ni1181   1.914       .  S
O1174     Ni1181   1.915       .  S
O1175     Ni1181   1.912       .  S
O1175      C1185   1.280       .  A
O1176     Ni1181   1.916       .  S
O1176      C1186   1.281       .  A
O1177     Ni1182   1.924       .  S
O1178     Ni1182   1.924       .  S
O1179     Ni1182   1.921       .  S
O1179      C1184   1.282       .  A
O1180     Ni1182   1.921       .  S
O1180      C1183   1.282       .  A
C1184      C1890   1.480       .  S
C1186      C1650   1.481       .  S
O1187     Ni1195   1.921       .  S
O1187      C1197   1.282       .  A
O1188     Ni1195   1.924       .  S
O1188      C1198   1.284       .  A
O1189     Ni1195   1.915       .  S
O1189      C1199   1.280       .  A
O1190     Ni1195   1.917       .  S
O1190      C1200   1.280       .  A
O1191     Ni1196   1.919       .  S
O1191      C1200   1.283       .  A
O1192     Ni1196   1.915       .  S
O1192      C1199   1.281       .  A
O1193     Ni1196   1.912       .  S
O1193      C1198   1.278       .  A
O1194     Ni1196   1.911       .  S
O1194      C1197   1.279       .  A
Ni1195    Ni1196   2.385       .  S
C1197      C1253   1.466       .  S
C1198      C1634   1.492       .  S
C1200      C1861   1.496       .  S
O1201     Ni1209   1.913       .  S
O1202     Ni1209   1.913       .  S
O1202      C1212   1.281       .  A
O1203     Ni1209   1.919       .  S
O1203      C1213   1.282       .  A
O1204     Ni1209   1.919       .  S
O1204      C1214   1.280       .  A
O1205     Ni1210   1.920       .  S
O1206     Ni1210   1.922       .  S
O1207     Ni1210   1.930       .  S
O1208     Ni1210   1.931       .  S
O1208      C1211   1.284       .  A
C1212      C1429   1.503       .  S
C1214      C1573   1.474       .  S
O1215     Ni1223   1.918       .  S
O1215      C1225   1.283       .  A
O1216     Ni1223   1.919       .  S
O1216      C1226   1.282       .  A
O1217     Ni1223   1.922       .  S
O1217      C1227   1.281       .  A
O1218     Ni1223   1.922       .  S
O1218      C1228   1.281       .  A
O1219     Ni1224   1.918       .  S
O1219      C1228   1.280       .  A
O1220     Ni1224   1.914       .  S
O1220      C1227   1.281       .  A
O1221     Ni1224   1.913       .  S
O1221      C1226   1.279       .  A
O1222     Ni1224   1.913       .  S
O1222      C1225   1.279       .  A
Ni1223    Ni1224   2.389       .  S
C1226      C1410   1.486       .  S
C1227      C1255   1.468       .  S
C1228      C1541   1.477       .  S
O1229     Ni1237   1.913       .  S
O1230     Ni1237   1.911       .  S
O1230      C1240   1.279       .  A
O1231     Ni1237   1.924       .  S
O1231      C1241   1.282       .  A
O1232     Ni1237   1.930       .  S
O1232      C1242   1.286       .  A
O1233     Ni1238   1.917       .  S
O1234     Ni1238   1.912       .  S
O1235     Ni1238   1.933       .  S
O1236     Ni1238   1.929       .  S
O1236      C1239   1.284       .  A
C1240      C1493   1.483       .  S
C1242      C1733   1.489       .  S
O1243     Ni1251   1.915       .  S
O1243      C1253   1.281       .  A
O1244     Ni1251   1.917       .  S
O1244      C1254   1.283       .  A
O1245     Ni1251   1.908       .  S
O1245      C1255   1.279       .  A
O1246     Ni1251   1.906       .  S
O1246      C1256   1.277       .  A
O1247     Ni1252   1.926       .  S
O1247      C1256   1.283       .  A
O1248     Ni1252   1.927       .  S
O1248      C1255   1.283       .  A
O1249     Ni1252   1.922       .  S
O1249      C1254   1.281       .  A
O1250     Ni1252   1.917       .  S
O1250      C1253   1.280       .  A
Ni1251    Ni1252   2.387       .  S
C1254      C1701   1.492       .  S
C1256      C1477   1.480       .  S
O1257     Ni1265   1.920       .  S
O1257      C1267   1.280       .  A
O1258      C1268   1.282       .  A
O1259     Ni1265   1.925       .  S
O1259      C1269   1.282       .  A
O1260      C1270   1.282       .  A
O1262     Ni1266   1.915       .  S
O1263     Ni1266   1.915   1_556  S
O1263      C1268   1.279       .  A
O1264      C1267   1.282       .  A
C1267      C1378   1.484       .  S
C1268      C1362   1.480       .  S
C1269      C1397   1.487   1_455  S
O1271     Ni1279   1.913       .  S
O1271      C1281   1.278       .  A
O1272     Ni1279   1.912       .  S
O1272      C1282   1.280       .  A
O1273     Ni1279   1.925       .  S
O1273      C1283   1.285       .  A
O1274     Ni1279   1.922       .  S
O1274      C1284   1.281       .  A
O1275     Ni1280   1.909       .  S
O1275      C1284   1.279       .  A
O1276     Ni1280   1.906       .  S
O1276      C1283   1.276       .  A
O1277     Ni1280   1.925       .  S
O1277      C1282   1.282       .  A
O1278     Ni1280   1.925       .  S
O1278      C1281   1.283       .  A
Ni1279    Ni1280   2.385       .  S
C1281      C1365   1.480       .  S
C1282      C1381   1.483       .  S
C1283      C1346   1.498   1_455  S
C1284      C1445   1.472       .  S
O1285      C1295   1.279       .  A
O1286     Ni1293   1.917       .  S
O1286      C1296   1.280       .  A
O1288     Ni1293   1.918       .  S
O1288      C1298   1.281       .  A
O1290     Ni1294   1.918       .  S
O1290      C1297   1.280       .  A
O1291     Ni1294   1.921       .  S
O1291      C1296   1.281       .  A
O1292      C1295   1.282       .  A
Ni1293    Ni1294   2.387       .  S
C1295      C1314   1.480       .  S
C1296      C1333   1.480       .  S
C1297      C1426   1.477       .  S
C1298      C1394   1.484       .  S
O1299     Ni1307   1.918       .  S
O1299      C1309   1.281       .  A
O1300     Ni1307   1.917       .  S
O1300      C1310   1.281       .  A
O1301     Ni1307   1.913       .  S
O1301      C1311   1.280       .  A
O1302     Ni1307   1.913       .  S
O1302      C1312   1.282       .  A
O1303     Ni1308   1.921       .  S
O1303      C1312   1.280       .  A
O1304     Ni1308   1.919       .  S
O1304      C1311   1.281       .  A
O1305     Ni1308   1.915       .  S
O1305      C1310   1.280       .  A
O1306     Ni1308   1.920       .  S
O1306      C1309   1.281       .  A
Ni1307    Ni1308   2.384       .  S
C1309      C1330   1.479       .  S
C1310      C1317   1.481       .  S
C1311      C1413   1.475       .  S
C1312      C1349   1.501       .  S
C1313      C1314   1.403       .  A
C1313      C1318   1.404       .  A
C1313      H1320   1.084       .  S
C1314      C1315   1.419       .  A
C1315      C1316   1.406       .  A
C1315      C1322   1.519       .  S
C1316      C1317   1.403       .  A
C1316      H1321   1.083       .  S
C1317      C1318   1.418       .  A
C1318      C1319   1.518       .  S
C1319      F1323   1.385       .  S
C1319      F1324   1.381       .  S
C1319      F1325   1.383       .  S
C1322      F1326   1.381       .  S
C1322      F1327   1.383       .  S
C1322      F1328   1.384       .  S
C1329      C1330   1.402       .  A
C1329      C1334   1.407       .  A
C1329      H1336   1.083       .  S
C1330      C1331   1.417       .  A
C1331      C1332   1.408       .  A
C1331      C1338   1.518       .  S
C1332      C1333   1.403       .  A
C1332      H1337   1.082       .  S
C1333      C1334   1.418       .  A
C1334      C1335   1.519       .  S
C1335      F1339   1.385       .  S
C1335      F1340   1.383       .  S
C1335      F1341   1.382       .  S
C1338      F1342   1.382       .  S
C1338      F1343   1.382       .  S
C1338      F1344   1.384       .  S
C1345      C1346   1.407       .  A
C1345      C1350   1.408       .  A
C1345      H1352   1.082       .  S
C1346      C1347   1.427       .  A
C1347      C1348   1.407       .  A
C1347      C1354   1.525       .  S
C1348      C1349   1.407       .  A
C1348      H1353   1.081       .  S
C1349      C1350   1.424       .  A
C1350      C1351   1.519       .  S
C1351      F1355   1.385       .  S
C1351      F1356   1.380       .  S
C1351      F1357   1.377       .  S
C1354      F1358   1.384   1_655  S
C1354      F1359   1.382   1_655  S
C1354      F1360   1.385       .  S
C1361      C1362   1.403       .  A
C1361      C1366   1.407       .  A
C1361      H1368   1.083       .  S
C1362      C1363   1.417       .  A
C1363      C1364   1.408       .  A
C1363      C1370   1.519       .  S
C1364      C1365   1.403       .  A
C1364      H1369   1.083       .  S
C1365      C1366   1.418       .  A
C1366      C1367   1.519       .  S
C1367      F1371   1.385       .  S
C1367      F1372   1.381       .  S
C1367      F1373   1.381       .  S
C1370      F1374   1.383       .  S
C1370      F1375   1.382       .  S
C1370      F1376   1.385       .  S
C1377      C1378   1.405       .  A
C1377      C1382   1.407       .  A
C1377      H1384   1.083       .  S
C1378      C1379   1.419       .  A
C1379      C1380   1.407       .  A
C1379      C1386   1.520       .  S
C1380      C1381   1.405       .  A
C1380      H1385   1.083       .  S
C1381      C1382   1.417       .  A
C1382      C1383   1.519       .  S
C1383      F1387   1.385       .  S
C1383      F1388   1.383       .  S
C1383      F1389   1.382       .  S
C1386      F1390   1.380       .  S
C1386      F1391   1.383       .  S
C1386      F1392   1.385       .  S
C1393      C1394   1.404       .  A
C1393      C1398   1.410       .  A
C1393      H1400   1.083       .  S
C1395      C1396   1.405       .  A
C1395      C1402   1.520       .  S
C1396      H1401   1.083       .  S
C1397      C1398   1.421       .  A
C1398      C1399   1.516       .  S
C1399      F1403   1.385       .  S
C1399      F1405   1.383   1_655  S
C1402      F1406   1.383       .  S
C1402      F1408   1.385       .  S
C1409      C1410   1.408       .  A
C1409      C1414   1.408       .  A
C1409      H1416   1.083       .  S
C1410      C1411   1.422       .  A
C1411      C1412   1.405       .  A
C1411      C1418   1.521       .  S
C1412      C1413   1.400       .  A
C1412      H1417   1.083       .  S
C1413      C1414   1.414       .  A
C1414      C1415   1.519       .  S
C1415      F1419   1.384       .  S
C1415      F1420   1.383       .  S
C1415      F1421   1.383       .  S
C1418      F1422   1.383       .  S
C1418      F1423   1.384       .  S
C1418      F1424   1.385       .  S
C1425      C1430   1.411       .  A
C1425      H1432   1.082       .  S
C1426      C1427   1.407       .  A
C1427      C1428   1.407       .  A
C1427      C1434   1.516       .  S
C1428      C1429   1.414       .  A
C1428      H1433   1.082       .  S
C1430      C1431   1.521       .  S
C1431      F1437   1.383       .  S
C1434      F1438   1.383       .  S
C1441      C1442   1.410       .  A
C1441      C1446   1.408       .  A
C1441      H1448   1.083       .  S
C1442      C1443   1.428       .  A
C1443      C1444   1.403       .  A
C1443      C1450   1.523       .  S
C1444      C1445   1.396       .  A
C1444      H1449   1.082       .  S
C1445      C1446   1.412       .  A
C1446      C1447   1.517       .  S
C1447      F1451   1.384       .  S
C1447      F1452   1.383       .  S
C1447      F1453   1.383       .  S
C1450      F1454   1.383       .  S
C1450      F1455   1.384       .  S
C1450      F1456   1.385       .  S
C1457      C1458   1.404       .  A
C1457      C1462   1.407       .  A
C1457      H1464   1.083       .  S
C1459      C1460   1.409       .  A
C1459      C1466   1.520       .  S
C1460      H1465   1.083       .  S
C1461      C1462   1.418       .  A
C1462      C1463   1.519       .  S
C1463      F1467   1.385       .  S
C1463      F1469   1.382       .  S
C1466      F1470   1.383       .  S
C1466      F1472   1.385       .  S
C1473      C1474   1.404       .  A
C1473      C1478   1.404       .  A
C1473      H1480   1.083       .  S
C1474      C1475   1.419       .  A
C1475      C1476   1.409       .  A
C1475      C1482   1.519       .  S
C1476      C1477   1.404       .  A
C1476      H1481   1.083       .  S
C1477      C1478   1.418       .  A
C1478      C1479   1.521       .  S
C1479      F1483   1.385       .  S
C1479      F1484   1.382       .  S
C1479      F1485   1.383       .  S
C1482      F1486   1.382       .  S
C1482      F1487   1.384       .  S
C1482      F1488   1.385       .  S
C1489      C1490   1.403       .  A
C1489      C1494   1.403       .  A
C1489      H1496   1.081       .  S
C1491      C1492   1.410       .  A
C1491      C1498   1.520       .  S
C1492      H1497   1.083       .  S
C1493      C1494   1.413       .  A
C1494      C1495   1.509       .  S
C1495      F1501   1.381       .  S
C1498      F1502   1.379       .  S
C1505      C1506   1.403       .  A
C1505      C1510   1.407       .  A
C1505      H1512   1.083       .  S
C1506      C1507   1.420       .  A
C1507      C1508   1.404       .  A
C1507      C1514   1.517       .  S
C1508      C1509   1.401       .  A
C1508      H1513   1.083       .  S
C1509      C1510   1.419       .  A
C1510      C1511   1.520       .  S
C1511      F1515   1.384       .  S
C1511      F1516   1.382       .  S
C1511      F1517   1.383       .  S
C1514      F1518   1.380       .  S
C1514      F1519   1.382       .  S
C1514      F1520   1.385       .  S
C1521      C1522   1.403       .  A
C1521      C1526   1.406       .  A
C1521      H1528   1.083       .  S
C1522      C1523   1.420       .  A
C1523      C1524   1.406       .  A
C1523      C1530   1.520       .  S
C1524      C1525   1.403       .  A
C1524      H1529   1.083       .  S
C1525      C1526   1.419       .  A
C1526      C1527   1.520       .  S
C1527      F1531   1.385       .  S
C1527      F1532   1.382       .  S
C1527      F1533   1.383       .  S
C1530      F1534   1.383       .  S
C1530      F1535   1.380       .  S
C1530      F1536   1.385       .  S
C1537      C1538   1.407       .  A
C1537      C1542   1.406       .  A
C1537      H1544   1.083       .  S
C1538      C1539   1.425       .  A
C1539      C1540   1.410       .  A
C1539      C1546   1.520       .  S
C1540      C1541   1.400       .  A
C1540      H1545   1.083       .  S
C1541      C1542   1.415       .  A
C1542      C1543   1.519       .  S
C1543      F1547   1.385       .  S
C1543      F1548   1.383       .  S
C1543      F1549   1.382       .  S
C1546      F1550   1.383       .  S
C1546      F1551   1.384       .  S
C1546      F1552   1.385       .  S
C1553      C1554   1.405       .  A
C1553      C1558   1.406   1_545  A
C1553      H1560   1.082       .  S
C1554      C1555   1.422       .  A
C1555      C1556   1.406   1_545  A
C1555      C1562   1.517       .  S
C1556      C1557   1.403       .  A
C1556      H1561   1.082       .  S
C1557      C1558   1.422       .  A
C1558      C1559   1.522       .  S
C1559      F1563   1.385       .  S
C1559      F1564   1.383       .  S
C1559      F1565   1.383       .  S
C1562      F1566   1.383       .  S
C1562      F1567   1.377       .  S
C1562      F1568   1.385       .  S
C1569      C1570   1.412   1_556  A
C1569      C1574   1.406       .  A
C1569      H1576   1.082       .  S
C1571      C1572   1.411       .  A
C1571      C1578   1.521       .  S
C1572      C1573   1.398       .  A
C1572      H1577   1.083       .  S
C1574      C1575   1.518       .  S
C1575      F1579   1.384       .  S
C1575      F1581   1.383       .  S
C1578      F1582   1.381       .  S
C1578      F1584   1.384       .  S
C1585      C1586   1.404       .  A
C1585      C1590   1.406       .  A
C1585      H1592   1.083       .  S
C1586      C1587   1.418       .  A
C1587      C1588   1.408       .  A
C1587      C1594   1.519       .  S
C1588      C1589   1.406       .  A
C1588      H1593   1.083       .  S
C1589      C1590   1.419       .  A
C1590      C1591   1.520       .  S
C1591      F1595   1.385       .  S
C1591      F1596   1.383       .  S
C1591      F1597   1.383       .  S
C1594      F1598   1.383       .  S
C1594      F1599   1.380       .  S
C1594      F1600   1.385       .  S
C1601      C1602   1.404       .  A
C1601      C1606   1.408       .  A
C1601      H1608   1.083       .  S
C1602      C1603   1.417       .  A
C1603      C1604   1.405       .  A
C1603      C1610   1.517       .  S
C1604      C1605   1.402       .  A
C1604      H1609   1.083       .  S
C1605      C1606   1.418       .  A
C1606      C1607   1.519       .  S
C1607      F1611   1.385       .  S
C1607      F1612   1.383       .  S
C1607      F1613   1.382       .  S
C1610      F1614   1.382       .  S
C1610      F1615   1.383       .  S
C1610      F1616   1.385       .  S
C1617      C1618   1.403       .  A
C1617      C1622   1.408   1_545  A
C1617      H1624   1.083       .  S
C1619      C1620   1.408   1_545  A
C1619      C1626   1.519       .  S
C1620      H1625   1.083       .  S
C1621      C1622   1.418       .  A
C1622      C1623   1.519       .  S
C1623      F1627   1.385       .  S
C1623      F1629   1.383       .  S
C1626      F1630   1.383       .  S
C1626      F1632   1.385       .  S
C1633      C1634   1.408       .  A
C1633      C1638   1.406       .  A
C1633      H1640   1.083       .  S
C1634      C1635   1.427       .  A
C1635      C1636   1.408       .  A
C1635      C1642   1.521       .  S
C1636      C1637   1.398       .  A
C1636      H1641   1.083       .  S
C1637      C1638   1.414       .  A
C1638      C1639   1.519       .  S
C1639      F1643   1.384       .  S
C1639      F1644   1.383       .  S
C1639      F1645   1.382       .  S
C1642      F1646   1.384       .  S
C1642      F1647   1.383       .  S
C1642      F1648   1.385       .  S
C1649      C1654   1.407       .  A
C1649      H1656   1.083       .  S
C1650      C1651   1.416   1_556  A
C1651      C1652   1.408       .  A
C1651      C1658   1.517       .  S
C1652      H1657   1.083       .  S
C1653      C1654   1.422       .  A
C1654      C1655   1.520       .  S
C1655      F1661   1.380       .  S
C1658      F1662   1.382       .  S
C1665      C1666   1.404       .  A
C1665      C1670   1.405       .  A
C1665      H1672   1.083       .  S
C1666      C1667   1.419       .  A
C1667      C1668   1.406       .  A
C1667      C1674   1.521       .  S
C1668      C1669   1.405       .  A
C1668      H1673   1.083       .  S
C1669      C1670   1.420       .  A
C1670      C1671   1.520       .  S
C1671      F1675   1.378       .  S
C1671      F1676   1.383       .  S
C1671      F1677   1.385       .  S
C1674      F1678   1.384       .  S
C1674      F1679   1.383       .  S
C1674      F1680   1.385       .  S
C1681      C1682   1.403       .  A
C1681      C1686   1.405       .  A
C1681      H1688   1.083       .  S
C1682      C1683   1.417       .  A
C1683      C1684   1.407       .  A
C1683      C1690   1.519       .  S
C1684      C1685   1.403       .  A
C1684      H1689   1.083       .  S
C1685      C1686   1.416       .  A
C1686      C1687   1.517       .  S
C1687      F1691   1.384       .  S
C1687      F1692   1.380       .  S
C1687      F1693   1.383       .  S
C1690      F1694   1.383       .  S
C1690      F1695   1.382       .  S
C1690      F1696   1.385       .  S
C1697      C1698   1.401       .  A
C1697      C1702   1.411       .  A
C1697      H1704   1.083       .  S
C1698      C1699   1.414       .  A
C1699      C1700   1.405       .  A
C1699      C1706   1.519       .  S
C1700      C1701   1.407       .  A
C1700      H1705   1.082       .  S
C1701      C1702   1.424       .  A
C1702      C1703   1.520       .  S
C1703      F1707   1.384       .  S
C1703      F1708   1.383       .  S
C1703      F1709   1.383       .  S
C1706      F1710   1.382       .  S
C1706      F1711   1.382       .  S
C1706      F1712   1.385       .  S
C1713      C1714   1.405       .  A
C1713      C1718   1.405       .  A
C1713      H1720   1.082       .  S
C1714      C1715   1.423       .  A
C1715      C1716   1.407       .  A
C1715      C1722   1.521       .  S
C1716      C1717   1.403       .  A
C1716      H1721   1.085       .  S
C1717      C1718   1.417       .  A
C1718      C1719   1.520       .  S
C1719      F1723   1.382   1_655  S
C1719      F1724   1.382   1_655  S
C1719      F1725   1.385       .  S
C1722      F1726   1.384       .  S
C1722      F1727   1.379       .  S
C1722      F1728   1.383       .  S
C1729      C1734   1.406       .  A
C1729      H1736   1.085       .  S
C1730      C1731   1.420       .  A
C1731      C1732   1.408       .  A
C1731      C1738   1.512       .  S
C1732      C1733   1.403       .  A
C1732      H1737   1.084       .  S
C1734      C1735   1.518       .  S
C1735      F1739   1.384       .  S
C1735      F1741   1.373       .  S
C1738      F1742   1.374       .  S
C1738      F1744   1.384       .  S
C1745      C1746   1.402       .  A
C1745      C1750   1.406       .  A
C1745      H1752   1.083       .  S
C1746      C1747   1.418       .  A
C1747      C1748   1.411       .  A
C1747      C1754   1.519       .  S
C1748      C1749   1.406       .  A
C1748      H1753   1.083       .  S
C1749      C1750   1.417       .  A
C1750      C1751   1.517       .  S
C1751      F1755   1.385       .  S
C1751      F1756   1.382       .  S
C1751      F1757   1.382       .  S
C1754      F1758   1.382       .  S
C1754      F1759   1.382       .  S
C1754      F1760   1.385       .  S
C1761      C1762   1.406       .  A
C1761      C1766   1.414       .  A
C1761      H1768   1.082       .  S
C1762      C1763   1.416       .  A
C1763      C1764   1.404       .  A
C1763      C1770   1.511       .  S
C1764      C1765   1.401       .  A
C1764      H1769   1.083       .  S
C1765      C1766   1.420       .  A
C1766      C1767   1.519       .  S
C1767      F1771   1.382       .  S
C1767      F1772   1.385       .  S
C1767      F1773   1.382       .  S
C1770      F1774   1.381       .  S
C1770      F1775   1.383       .  S
C1770      F1776   1.384       .  S
C1777      C1778   1.403   1_655  A
C1777      C1782   1.410       .  A
C1777      H1784   1.083       .  S
C1779      C1780   1.408       .  A
C1779      C1786   1.519       .  S
C1780      H1785   1.083       .  S
C1781      C1782   1.417       .  A
C1782      C1783   1.517       .  S
C1783      F1787   1.385       .  S
C1783      F1788   1.383       .  S
C1786      F1791   1.383   1_655  S
C1786      F1792   1.385       .  S
C1793      C1794   1.402       .  A
C1793      C1798   1.407       .  A
C1793      H1800   1.083       .  S
C1794      C1795   1.420       .  A
C1795      C1796   1.408       .  A
C1795      C1802   1.520       .  S
C1796      C1797   1.403       .  A
C1796      H1801   1.083       .  S
C1797      C1798   1.421       .  A
C1798      C1799   1.520       .  S
C1799      F1803   1.385       .  S
C1799      F1804   1.383       .  S
C1799      F1805   1.383       .  S
C1802      F1806   1.382       .  S
C1802      F1807   1.383       .  S
C1802      F1808   1.385       .  S
C1809      C1810   1.407       .  A
C1809      C1814   1.407       .  A
C1809      H1816   1.083       .  S
C1811      C1812   1.409       .  A
C1811      C1818   1.520       .  S
C1812      H1817   1.083       .  S
C1813      C1814   1.413       .  A
C1814      C1815   1.516       .  S
C1815      F1819   1.385       .  S
C1815      F1820   1.383       .  S
C1818      F1823   1.382       .  S
C1818      F1824   1.385       .  S
C1825      C1826   1.402       .  A
C1825      C1830   1.403       .  A
C1825      H1832   1.083       .  S
C1826      C1827   1.416       .  A
C1827      C1828   1.404       .  A
C1827      C1834   1.520       .  S
C1828      C1829   1.405       .  A
C1828      H1833   1.083       .  S
C1829      C1830   1.419       .  A
C1830      C1831   1.518       .  S
C1831      F1835   1.385       .  S
C1831      F1836   1.380       .  S
C1831      F1837   1.381       .  S
C1834      F1838   1.383       .  S
C1834      F1839   1.382       .  S
C1834      F1840   1.385       .  S
C1841      C1842   1.407       .  A
C1841      C1846   1.405       .  A
C1841      H1848   1.082       .  S
C1842      C1843   1.423       .  A
C1843      C1844   1.406       .  A
C1843      C1850   1.522       .  S
C1844      C1845   1.408       .  A
C1844      H1849   1.081       .  S
C1845      C1846   1.422       .  A
C1846      C1847   1.520       .  S
C1847      F1851   1.385       .  S
C1847      F1852   1.383       .  S
C1847      F1853   1.381       .  S
C1850      F1854   1.383       .  S
C1850      F1855   1.380       .  S
C1850      F1856   1.385       .  S
C1857      C1858   1.398       .  A
C1857      C1862   1.408       .  A
C1857      H1864   1.083       .  S
C1858      C1859   1.411       .  A
C1859      C1860   1.407       .  A
C1859      C1866   1.519       .  S
C1860      C1861   1.410       .  A
C1860      H1865   1.082       .  S
C1861      C1862   1.428       .  A
C1862      C1863   1.521       .  S
C1863      F1867   1.385       .  S
C1863      F1868   1.383       .  S
C1863      F1869   1.384       .  S
C1866      F1870   1.382       .  S
C1866      F1871   1.384       .  S
C1866      F1872   1.385       .  S
C1873      C1874   1.404       .  A
C1873      C1878   1.406   1_565  A
C1873      H1880   1.080       .  S
C1874      C1875   1.420       .  A
C1875      C1876   1.407   1_565  A
C1875      C1882   1.521       .  S
C1876      C1877   1.404       .  A
C1876      H1881   1.081       .  S
C1877      C1878   1.417       .  A
C1878      C1879   1.519       .  S
C1879      F1883   1.385       .  S
C1879      F1884   1.384       .  S
C1879      F1885   1.382       .  S
C1882      F1886   1.380       .  S
C1882      F1887   1.382       .  S
C1882      F1888   1.385   1_565  S
C1889      C1890   1.403       .  A
C1889      C1894   1.408       .  A
C1889      H1896   1.084       .  S
C1891      C1892   1.404       .  A
C1891      C1898   1.520       .  S
C1892      C1893   1.402   1_556  A
C1892      H1897   1.083       .  S
C1894      C1895   1.521       .  S
C1895      F1901   1.382       .  S
C1898      F1902   1.385       .  S
C1905      C1906   1.402       .  A
C1905      C1910   1.404       .  A
C1905      H1912   1.083       .  S
C1906      C1907   1.421       .  A
C1907      C1908   1.406       .  A
C1907      C1914   1.521       .  S
C1908      C1909   1.403       .  A
C1908      H1913   1.083       .  S
C1909      C1910   1.420       .  A
C1910      C1911   1.517       .  S
C1911      F1915   1.385       .  S
C1911      F1916   1.381       .  S
C1911      F1917   1.380       .  S
C1914      F1918   1.383       .  S
C1914      F1919   1.383       .  S
C1914      F1920   1.385       .  S
C1921      C1922   1.403       .  A
C1921      C1926   1.406       .  A
C1921      H1928   1.083       .  S
C1922      C1923   1.420       .  A
C1923      C1924   1.404       .  A
C1923      C1930   1.519       .  S
C1924      C1925   1.402       .  A
C1924      H1929   1.083       .  S
C1925      C1926   1.421       .  A
C1926      C1927   1.520       .  S
C1927      F1931   1.385       .  S
C1927      F1932   1.377       .  S
C1927      F1933   1.382       .  S
C1930      F1934   1.380       .  S
C1930      F1935   1.383       .  S
C1930      F1936   1.385       .  S
C1937      C1942   1.408   1_565  A
C1937      H1944   1.083       .  S
C1938      C1939   1.419   1_565  A
C1939      C1940   1.409       .  A
C1939      C1946   1.519   1_545  S
C1940      C1941   1.406       .  A
C1940      H1945   1.083       .  S
C1942      C1943   1.520       .  S
C1943      F1947   1.385       .  S
C1943      F1948   1.384       .  S
C1946      F1951   1.384       .  S
C1946      F1952   1.385   1_565  S
