geometry optimzed in LAMMPS
_audit_creation_date              2020-12-01 
_audit_creation_method            'lammps2cif' 
_symmetry_space_group_name_H-M    'P1' 
_symmetry_Int_Tables_number       1 
_symmetry_cell_setting            triclinic 
loop_ 
_symmetry_equiv_pos_as_xyz 
  x,y,z 
_cell_length_a                    40.61655649 
_cell_length_b                    38.2452306939126 
_cell_length_c                    69.88262164031254 
_cell_angle_alpha                 90.01691604031039 
_cell_angle_beta                  89.78991221620521 
_cell_angle_gamma                 89.91445873183405 
loop_ 
_atom_site_label 
_atom_site_type_symbol 
_atom_site_fract_x 
_atom_site_fract_y 
_atom_site_fract_z 
_atom_site_charge 
N1          N  0.44811324  0.50683190  0.50083686    -0.36800
N2          N  0.99499186  0.49935273  0.47172361    -0.57300
N3          N  0.04807121  0.01270543  0.50307884    -0.36700
N4          N  0.99798518  0.01699358  0.53224123    -0.57300
C5          C  0.42966799  0.50721750  0.48481587     0.26800
C6          C  0.42967062  0.00599418  0.51641030     0.26800
C7          C  0.06081164  0.51746742  0.48562259     0.26800
C8          C  0.06493620  0.02664753  0.51786517     0.26800
C9          C  0.47123825  0.48507550  0.46202596     0.35400
C10         C  0.02285927  0.49024873  0.46235363     0.35500
C11         C  0.47082233  0.00430792  0.54249988     0.35400
C12         C  0.02453013  0.01579403  0.54371650     0.35500
C13         C  0.39914219  0.52182604  0.48876054    -0.22000
C14         C  0.39884255  0.01415858  0.50916357    -0.22000
C15         C  0.08957967  0.53512866  0.49015742    -0.22000
C16         C  0.09351341  0.04220344  0.51112872    -0.22000
C17         C  0.48214784  0.46504933  0.44673328    -0.23100
C18         C  0.01536449  0.46917116  0.44681832    -0.23100
C19         C  0.48018346  0.00165438  0.56149264    -0.23100
C20         C  0.01498289  0.01035117  0.56254340    -0.23100
C21         C  0.43817353  0.48995847  0.46765804    -0.18400
C22         C  0.43837174  0.00806411  0.53596273    -0.18400
C23         C  0.05689172  0.02204368  0.53739248    -0.18400
C24         C  0.05469825  0.50129126  0.46778636    -0.18400
H25         H  0.37864291  0.52466579  0.47902711     0.14500
H26         H  0.37769271  0.02395133  0.51697342     0.14500
H27         H  0.10927711  0.54238664  0.48047379     0.14500
H28         H  0.11256093  0.05466714  0.51949944     0.14500
H29         H  0.46735742  0.44971476  0.43699990     0.12800
H30         H  0.03237140  0.45771588  0.43663453     0.12800
H31         H  0.46428506  0.99987929  0.57391816     0.12800
H32         H  0.03062366  0.00871828  0.57501605     0.12800
H33         H  0.46983945  0.49280937  0.50250384     0.26000
H34         H  0.02874722  0.99501573  0.50436264     0.26000
N35         N  0.04263489  0.25071321  0.49947408    -0.36800
N36         N  0.49703788  0.23809634  0.52935510    -0.57300
N37         N  0.44550254  0.24727115  0.50081470    -0.36700
N38         N  0.49339514  0.25848239  0.47101004    -0.57300
C39         C  0.06240596  0.25032749  0.51500404     0.26800
C40         C  0.05992855  0.26541077  0.48499276     0.26800
C41         C  0.42817455  0.24843110  0.51732633     0.26800
C42         C  0.42612071  0.26094409  0.48700166     0.26800
C43         C  0.02260607  0.22621823  0.53854805     0.35400
C44         C  0.47097337  0.22643043  0.53953510     0.35500
C45         C  0.01604390  0.26588883  0.46030120     0.35400
C46         C  0.46608568  0.25852534  0.46008271     0.35500
C47         C  0.09262466  0.26488248  0.51035324    -0.22000
C48         C  0.09104925  0.27448221  0.49141686    -0.22000
C49         C  0.39741002  0.26291053  0.51401873    -0.22000
C50         C  0.39615747  0.27097896  0.49487839    -0.22000
C51         C  0.01422332  0.20583322  0.55420466    -0.23100
C52         C  0.48151274  0.20837742  0.55558562    -0.23100
C53         C  0.00496826  0.26526136  0.44157976    -0.23100
C54         C  0.47453899  0.25738252  0.44086701    -0.23100
C55         C  0.05503059  0.23406297  0.53266221    -0.18400
C56         C  0.04927811  0.26843406  0.46581065    -0.18400
C57         C  0.43383356  0.26231331  0.46727189    -0.18400
C58         C  0.43784223  0.23274777  0.53469778    -0.18400
H59         H  0.11381608  0.26769020  0.51957256     0.14500
H60         H  0.11082706  0.28617693  0.48321623     0.14500
H61         H  0.37764532  0.26647469  0.52427194     0.14500
H62         H  0.37524804  0.28218893  0.48752241     0.14500
H63         H  0.03073428  0.19242495  0.56387137     0.12800
H64         H  0.46647636  0.19613529  0.56649572     0.12800
H65         H  0.01969133  0.26527382  0.42863844     0.12800
H66         H  0.45811499  0.25771060  0.42870640     0.12800
H67         H  0.02042310  0.23744094  0.49816615     0.26000
H68         H  0.46721587  0.23332292  0.49869609     0.26000
C69         C  0.32192247  0.44180514  0.42799310     0.42300
N70         N  0.28052960  0.43588710  0.40916134     0.01200
C71         C  0.17794369  0.29260024  0.40339660    -0.06700
H72         H  0.31189106  0.26788877  0.39724500     0.06700
C73         C  0.30522302  0.33132029  0.33578912    -0.07000
Co74       Co  0.24197161  0.37196036  0.41907745     0.74200
N75         N  0.27804446  0.30968157  0.40433670    -0.26200
Co76       Co  0.24400181  0.31221277  0.38217478     0.74100
C77         C  0.31618740  0.29589522  0.34058030     0.42400
N78         N  0.28489438  0.41883563  0.35248934     0.00800
N79         N  0.28162555  0.31407459  0.36186497     0.00900
N80         N  0.17846215  0.33314203  0.42694737    -0.47100
H81         H  0.30710581  0.39271514  0.44509706     0.06700
N82         N  0.27736110  0.33279778  0.41832294     0.01200
N83         N  0.21091836  0.31586635  0.35980008     0.00900
C84         C  0.18142818  0.29847852  0.33625153     0.42600
N85         N  0.28379208  0.44146987  0.36671977    -0.25700
C86         C  0.18197621  0.41501849  0.43113713    -0.06600
N87         N  0.30639713  0.45603110  0.41271715    -0.46800
N88         N  0.19266531  0.28960379  0.35368701    -0.47000
C89         C  0.16778488  0.44874993  0.42642631     0.42300
N90         N  0.20527863  0.33491300  0.41625014     0.01200
N91         N  0.21256446  0.44326714  0.36446173    -0.25700
N92         N  0.27824943  0.40952098  0.42121339    -0.26200
N93         N  0.21354597  0.42033258  0.35031882     0.00800
H94         H  0.19017612  0.49413785  0.36703345     0.06700
H95         H  0.19494505  0.34697320  0.31850499     0.06800
N96         N  0.20565322  0.31179180  0.40226454    -0.26200
N97         N  0.28374743  0.34023656  0.34960836    -0.25800
N98         N  0.20822195  0.43815906  0.40740012     0.01200
C99         C  0.31998003  0.30176349  0.42404139     0.42600
C100        C  0.30585024  0.46668690  0.36334076    -0.07100
N101        N  0.21266892  0.34175710  0.34734354    -0.25800
H102        H  0.30814227  0.34507884  0.32237044     0.06700
N103        N  0.30208675  0.32905809  0.43041634    -0.47100
H104        H  0.30732396  0.49103175  0.37117289     0.06700
C105        C  0.18149606  0.46105976  0.34006000     0.42400
C106        C  0.30283115  0.41131334  0.43374826    -0.06600
Co107      Co  0.24620204  0.44059360  0.38699860     0.73800
N108        N  0.30645346  0.42791680  0.33913772    -0.46800
C109        C  0.15976977  0.30751092  0.41959891     0.42700
N110        N  0.18492081  0.46163685  0.41129301    -0.54000
Co111      Co  0.24874437  0.38038247  0.34968995     0.73900
C112        C  0.19446364  0.33331355  0.33205315    -0.07100
C113        C  0.30408311  0.28850788  0.40683796    -0.06700
N114        N  0.20705825  0.41112245  0.41906454    -0.26200
N115        N  0.30025607  0.28717153  0.35688442    -0.46900
H116        H  0.17071281  0.27217331  0.39357663     0.06700
C117        C  0.19252936  0.46962963  0.35941933    -0.07100
Cl118      Cl  0.24520751  0.37632580  0.38442990    -0.50100
C119        C  0.32088933  0.45795091  0.34490170     0.42500
H120        H  0.17526530  0.39666291  0.44221021     0.06700
N121        N  0.19531600  0.42997439  0.33557393    -0.46800
C122        C  0.32829580  0.05088356  0.58145227     0.42300
N123        N  0.28598480  0.05977298  0.59911837     0.01200
C124        C  0.18269170  0.20352115  0.59418487    -0.06700
H125        H  0.31330207  0.22981390  0.60555160     0.06700
C126        C  0.30001396  0.17057408  0.66936734    -0.07000
Co127      Co  0.24834777  0.12174148  0.58541738     0.74200
N128        N  0.28177606  0.18602814  0.59963742    -0.26200
Co129      Co  0.24434555  0.18591422  0.62025926     0.74100
C130        C  0.31194326  0.20529819  0.66417564     0.42400
N131        N  0.28210696  0.08260179  0.65539891     0.00800
N132        N  0.27877115  0.18669443  0.64244920     0.00900
N133        N  0.18772400  0.16074026  0.57220609    -0.47100
H134        H  0.31603509  0.09741572  0.56203282     0.06700
N135        N  0.28283811  0.16113286  0.58664531     0.01200
N136        N  0.20797696  0.18378283  0.64114107     0.00900
C137        C  0.17427281  0.20155574  0.66293552     0.42600
N138        N  0.28377255  0.05898364  0.64166376    -0.25700
C139        C  0.18992806  0.07639665  0.57275473    -0.06600
N140        N  0.31170158  0.03866707  0.59687875    -0.46800
N141        N  0.18829744  0.20994253  0.64599275    -0.47000
C142        C  0.17310600  0.04571594  0.57993297     0.42300
N143        N  0.21124545  0.15884784  0.58514594     0.01200
N144        N  0.21238929  0.05627106  0.64091750    -0.25700
N145        N  0.28514723  0.08474508  0.58614427    -0.26200
N146        N  0.21103790  0.08051631  0.65430940     0.00800
H147        H  0.19184070  0.00465637  0.63915318     0.06700
H148        H  0.18510384  0.15345830  0.68148067     0.06800
N149        N  0.20915533  0.18354747  0.59823791    -0.26200
N150        N  0.27955533  0.16131967  0.65524847    -0.25800
N151        N  0.21360502  0.05723740  0.59831046     0.01200
C152        C  0.32662189  0.19096501  0.58112010     0.42600
C153        C  0.30475971  0.03381110  0.64694031    -0.07100
N154        N  0.20809276  0.15852758  0.65399838    -0.25800
H155        H  0.30216106  0.15722197  0.68294893     0.06700
N156        N  0.30885068  0.16321774  0.57543557    -0.47100
H157        H  0.30720187  0.00876597  0.63987473     0.06700
C158        C  0.17812919  0.04039596  0.66438000     0.42400
C159        C  0.31074236  0.08118664  0.57433213    -0.06600
Co160      Co  0.24896099  0.05727719  0.61993983     0.73800
N161        N  0.30027253  0.07395747  0.67039897    -0.46800
C162        C  0.16837179  0.18809271  0.57674721     0.42700
N163        N  0.18883784  0.03505309  0.59592342    -0.46800
Co164      Co  0.24522105  0.12083789  0.65496769     0.73900
C165        C  0.18672366  0.16678276  0.66785724    -0.07100
C166        C  0.30820904  0.20676901  0.59716089    -0.06700
N167        N  0.21427128  0.08183283  0.58510044    -0.26200
N168        N  0.29720754  0.21370869  0.64746575    -0.46900
H169        H  0.17464243  0.22594315  0.60239478     0.06700
C170        C  0.19216284  0.03012819  0.64587970    -0.07100
Cl171      Cl  0.24670250  0.12142651  0.62019728    -0.50100
C172        C  0.31540581  0.04334173  0.66618863     0.42500
H173        H  0.18422697  0.09242619  0.56052106     0.06700
N174        N  0.19124573  0.07188621  0.66860209    -0.46800
N175        N  0.18873310  0.49696996  0.00682667    -0.36800
N176        N  0.23617239  0.00375920  0.97540682    -0.57300
N177        N  0.28730463  0.50114154  0.00710240    -0.36700
N178        N  0.23730299  0.49304065  0.03626360    -0.57300
C179        C  0.16981613  0.98930624  0.98998764     0.26800
C180        C  0.17166643  0.48345368  0.02173220     0.26800
C181        C  0.30466012  0.00240406  0.98940076     0.26800
C182        C  0.30538529  0.48850429  0.02183249     0.26800
C183        C  0.20853986  0.01218994  0.96564363     0.35400
C184        C  0.26204539  0.01596351  0.96511690     0.35500
C185        C  0.21058586  0.49703925  0.04755356     0.35400
C186        C  0.26384936  0.49657902  0.04756409     0.35500
C187        C  0.14170717  0.97081935  0.99496213    -0.22000
C188        C  0.14414862  0.46591969  0.01501655    -0.22000
C189        C  0.33597438  0.99145419  0.99447162    -0.22000
C190        C  0.33573900  0.47726542  0.01499700    -0.22000
C191        C  0.21691344  0.02942385  0.94886823    -0.23100
C192        C  0.25086798  0.03137439  0.94840778    -0.23100
C193        C  0.22020073  0.50380198  0.06621611    -0.23100
C194        C  0.25411115  0.50283246  0.06627682    -0.23100
C195        C  0.17619425  0.00315248  0.97162165    -0.18400
C196        C  0.17821402  0.49055092  0.04122502    -0.18400
C197        C  0.29617305  0.48938746  0.04142758    -0.18400
C198        C  0.29548876  0.01304316  0.97078097    -0.18400
H199        H  0.12275332  0.96136523  0.98542699     0.14500
H200        H  0.12536209  0.45294164  0.02342351     0.14500
H201        H  0.35710259  0.98790094  0.98519775     0.14500
H202        H  0.35593328  0.46653628  0.02318647     0.14500
H203        H  0.20036438  0.03949247  0.93808913     0.12800
H204        H  0.26559342  0.04343151  0.93729263     0.12800
H205        H  0.20458290  0.50764046  0.07861269     0.12800
H206        H  0.26975475  0.50561990  0.07868698     0.12800
H207        H  0.20770595  0.51518998  0.00778890     0.26000
H208        H  0.26534954  0.51505228  0.00817748     0.26000
N209        N  0.29470587  0.26827478  0.00031139    -0.36800
N210        N  0.24409078  0.27184006  0.02878498    -0.57300
N211        N  0.19587712  0.26288233  0.99849780    -0.36700
N212        N  0.24683940  0.26084447  0.96932049    -0.57300
C213        C  0.31197110  0.28032390  0.01548192     0.26800
C214        C  0.31343248  0.27345107  0.98454715     0.26800
C215        C  0.17648387  0.27366167  0.01313732     0.26800
C216        C  0.17801962  0.26596084  0.98225919     0.26800
C217        C  0.27012820  0.26991581  0.04069030     0.35400
C218        C  0.21688914  0.26777735  0.03965406     0.35500
C219        C  0.27471165  0.25067891  0.96018170     0.35400
C220        C  0.22117823  0.24797284  0.95918071     0.35500
C221        C  0.34169453  0.29404643  0.00918164    -0.22000
C222        C  0.34271723  0.28944093  0.98966184    -0.22000
C223        C  0.14602909  0.28381275  0.00607080    -0.22000
C224        C  0.14696229  0.27877472  0.98662257    -0.22000
C225        C  0.25942424  0.26445803  0.05931073    -0.23100
C226        C  0.22556616  0.26344412  0.05867253    -0.23100
C227        C  0.26673517  0.23205605  0.94382728    -0.23100
C228        C  0.23275869  0.23041053  0.94317229    -0.23100
C229        C  0.30303592  0.27585631  0.03495248    -0.18400
C230        C  0.30705237  0.25881628  0.96638738    -0.18400
C231        C  0.18757401  0.25299149  0.96414300    -0.18400
C232        C  0.18451877  0.27199326  0.03282514    -0.18400
H233        H  0.36117750  0.30498849  0.01783611     0.14500
H234        H  0.36319141  0.29587375  0.98035637     0.14500
H235        H  0.12487097  0.29287982  0.01412611     0.14500
H236        H  0.12672564  0.28318166  0.97689169     0.14500
H237        H  0.27431652  0.26237353  0.07206737     0.12800
H238        H  0.20920031  0.26055152  0.07082572     0.12800
H239        H  0.28361323  0.22073203  0.93352330     0.12800
H240        H  0.21826704  0.21757570  0.93227575     0.12800
H241        H  0.27408378  0.25227291  0.00093353     0.26000
H242        H  0.21813088  0.24968578  0.99978642     0.26000
C243        C  0.40823389  0.05425322  0.92455469     0.42300
N244        N  0.42992415  0.08684966  0.90291924     0.01200
C245        C  0.07438240  0.07246014  0.84727571    -0.06700
H246        H  0.09984562  0.09754265  0.91680218     0.06700
C247        C  0.04339606  0.21129999  0.91554547    -0.07000
Co248      Co  0.49185395  0.05919379  0.88547185     0.74200
N249        N  0.05408604  0.08671773  0.90261572    -0.26200
Co250      Co  0.05396147  0.12367728  0.88083374     0.74100
C251        C  0.07563649  0.19774614  0.92212412     0.42400
N252        N  0.45328237  0.18778594  0.90304527     0.00800
N253        N  0.05487047  0.16274328  0.90132827     0.00900
N254        N  0.03637156  0.03029693  0.85178266    -0.47100
H255        H  0.45214393  0.01555787  0.92300875     0.06700
N256        N  0.03153870  0.06206140  0.90470306     0.01200
N257        N  0.05213561  0.16336446  0.85976736     0.00900
C258        C  0.06288829  0.20235189  0.83839526     0.42600
N259        N  0.43086201  0.16290882  0.90165991    -0.25700
C260        C  0.45226802  0.03194003  0.85130616    -0.06600
N261        N  0.40385204  0.08314969  0.91401577    -0.46800
N262        N  0.07375845  0.17171747  0.84608920    -0.47000
C263        C  0.42357416  0.04252277  0.84055663     0.42300
N264        N  0.03128351  0.05702189  0.86336994     0.01200
N265        N  0.43455922  0.16241400  0.86006559    -0.25700
N266        N  0.45246287  0.06233877  0.90546090    -0.26200
N267        N  0.45715021  0.18710391  0.86132774     0.00800
H268        H  0.39213813  0.15671398  0.84164507     0.06700
H269        H  0.01906758  0.23613727  0.84775414     0.06800
N270        N  0.05297089  0.08235096  0.86106462    -0.26200
N271        N  0.03197228  0.18718742  0.90294499    -0.25800
N272        N  0.43408939  0.08187878  0.86156425     0.01200
C273        C  0.06746469  0.05198935  0.92648359     0.42600
C274        C  0.40683659  0.16877052  0.91430056    -0.07100
N275        N  0.02891218  0.18734055  0.86158559    -0.25800
H276        H  0.03205206  0.23631416  0.91854439     0.06700
N277        N  0.03932358  0.03965669  0.91854210    -0.47100
H278        H  0.38439982  0.15375909  0.91564322     0.06700
C279        C  0.42818636  0.20265369  0.83720560     0.42400
C280        C  0.44074473  0.03998159  0.91889911    -0.06600
Co281      Co  0.43196286  0.12357927  0.88125332     0.73800
N282        N  0.44466640  0.21207691  0.91582049    -0.46800
C283        C  0.06320911  0.03751377  0.84117344     0.42700
N284        N  0.41289429  0.07346812  0.84781631    -0.46800
Co285      Co  0.49226630  0.18802382  0.88289358     0.73900
C286        C  0.03342493  0.21236459  0.84871165    -0.07100
C287        C  0.07733319  0.08260188  0.91582899    -0.06700
N288        N  0.45677548  0.05749879  0.86401291    -0.26200
N289        N  0.08064913  0.16798766  0.91239767    -0.46900
H290        H  0.09547727  0.08747403  0.84266897     0.06700
C291        C  0.41437566  0.17054449  0.84545052    -0.07100
Cl292      Cl  0.49209484  0.12357725  0.88302981    -0.50100
C293        C  0.41593533  0.20091142  0.92376895     0.42500
H294        H  0.46640133  0.00800740  0.85037339     0.06700
N295        N  0.45429942  0.21132718  0.84795219    -0.46800
N296        N  0.14774724  0.37088479  0.72550355    -0.36800
N297        N  0.13657618  0.31653228  0.75384695    -0.57300
N298        N  0.11492931  0.37038193  0.78100498    -0.36700
N299        N  0.13032613  0.42485695  0.75338681    -0.57300
C300        C  0.16143941  0.34300465  0.71663300     0.26800
C301        C  0.15881739  0.39980421  0.71646311     0.26800
C302        C  0.11409524  0.34177427  0.79242625     0.26800
C303        C  0.11113428  0.39902057  0.79225914     0.26800
C304        C  0.13998379  0.29644523  0.73803192     0.35400
C305        C  0.12328996  0.29573233  0.76744191     0.35500
C306        C  0.13248212  0.44464073  0.73739764     0.35400
C307        C  0.11527195  0.44481119  0.76681219     0.35500
C308        C  0.18151282  0.35427354  0.70178633    -0.22000
C309        C  0.17988015  0.39019549  0.70168161    -0.22000
C310        C  0.10940315  0.35233989  0.81122864    -0.22000
C311        C  0.10764852  0.38838421  0.81113416    -0.22000
C312        C  0.12937570  0.26268249  0.74169375    -0.23100
C313        C  0.11900963  0.26215880  0.76035036    -0.23100
C314        C  0.11910962  0.47744305  0.74073200    -0.23100
C315        C  0.10826497  0.47758131  0.75936970    -0.23100
C316        C  0.15413068  0.30768778  0.72060748    -0.18400
C317        C  0.14837289  0.43437258  0.72024496    -0.18400
C318        C  0.10833832  0.43422607  0.78583445    -0.18400
C319        C  0.11465117  0.30637084  0.78617907    -0.18400
H320        H  0.19546062  0.33823980  0.69188032     0.14500
H321        H  0.19232661  0.40726963  0.69165109     0.14500
H322        H  0.10690706  0.33574808  0.82369384     0.14500
H323        H  0.10354899  0.40483726  0.82352332     0.14500
H324        H  0.12912829  0.24067245  0.73196086     0.12800
H325        H  0.10895354  0.23969238  0.76773805     0.12800
H326        H  0.11868961  0.99998450  0.73250456     0.12800
H327        H  0.09561555  0.99848614  0.76785088     0.12800
H328        H  0.12855606  0.37003743  0.73539053     0.26000
H329        H  0.11413759  0.37003086  0.76617051     0.26000
N330        N  0.36225934  0.42701947  0.75338383    -0.36800
N331        N  0.37259684  0.37490738  0.78304916    -0.57300
N332        N  0.36398330  0.32015230  0.75416308    -0.36700
N333        N  0.35032251  0.37235096  0.72536214    -0.57300
C334        C  0.36170441  0.44748231  0.76917319     0.26800
C335        C  0.34959651  0.44605106  0.73884665     0.26800
C336        C  0.36440088  0.30109061  0.77043884     0.26800
C337        C  0.35080235  0.29975180  0.74031541     0.26800
C338        C  0.38219685  0.40381369  0.79271961     0.35400
C339        C  0.38383144  0.34704357  0.79303170     0.35500
C340        C  0.35106842  0.40022264  0.71352077     0.35400
C341        C  0.35093680  0.34363914  0.71410610     0.35500
C342        C  0.34872513  0.47995849  0.76460836    -0.22000
C343        C  0.34086922  0.47898707  0.74549797    -0.22000
C344        C  0.35171748  0.26808455  0.76687915    -0.22000
C345        C  0.34289046  0.26732993  0.74790656    -0.22000
C346        C  0.39889513  0.39425034  0.80917026    -0.23100
C347        C  0.39997332  0.35826360  0.80935349    -0.23100
C348        C  0.35221841  0.38918152  0.69462829    -0.23100
C349        C  0.35210465  0.35328986  0.69500142    -0.23100
C350        C  0.37517684  0.43865820  0.78715759    -0.18400
C351        C  0.34786962  0.43537177  0.71948441    -0.18400
C352        C  0.34726559  0.30901901  0.72081769    -0.18400
C353        C  0.37844705  0.31163547  0.78799209    -0.18400
H354        H  0.34585846  0.00148192  0.77714732     0.14500
H355        H  0.33158762  0.00156209  0.74034968     0.14500
H356        H  0.34925489  0.24667466  0.77690549     0.14500
H357        H  0.33227886  0.24521709  0.74050206     0.14500
H358        H  0.40926353  0.41140208  0.81988898     0.12800
H359        H  0.41125294  0.34219762  0.82027043     0.12800
H360        H  0.35247086  0.40529505  0.68189938     0.12800
H361        H  0.35222768  0.33625276  0.68263104     0.12800
H362        H  0.37443673  0.40326288  0.75206301     0.26000
H363        H  0.37567789  0.34399401  0.75220305     0.26000
N364        N  0.10669124  0.12581333  0.22386630    -0.36800
N365        N  0.12657565  0.17990129  0.25039740    -0.57300
N366        N  0.14064715  0.12632686  0.27887355    -0.36700
N367        N  0.12424482  0.07203549  0.25143412    -0.57300
C368        C  0.10741241  0.15384651  0.21204529     0.26800
C369        C  0.10503594  0.09690581  0.21276077     0.26800
C370        C  0.15375434  0.15486227  0.28733713     0.26800
C371        C  0.15350652  0.09793907  0.28764353     0.26800
C372        C  0.11242761  0.20010401  0.23685554     0.35400
C373        C  0.12971125  0.20022763  0.26607990     0.35500
C374        C  0.10896289  0.05177999  0.23835362     0.35400
C375        C  0.12822795  0.05204781  0.26720653     0.35500
C376        C  0.10625657  0.14255273  0.19319559    -0.22000
C377        C  0.10456940  0.10663415  0.19365237    -0.22000
C378        C  0.17498769  0.14455997  0.30177499    -0.22000
C379        C  0.17493756  0.10857611  0.30192040    -0.22000
C380        C  0.10675616  0.23343975  0.24394756    -0.23100
C381        C  0.11786606  0.23355956  0.26245619    -0.23100
C382        C  0.10352573  0.01866471  0.24578049    -0.23100
C383        C  0.11583732  0.01880925  0.26405970    -0.23100
C384        C  0.10625750  0.18933025  0.21785975    -0.18400
C385        C  0.10143377  0.06220605  0.21946080    -0.18400
C386        C  0.14456746  0.06284830  0.28401056    -0.18400
C387        C  0.14525187  0.18984782  0.28316966    -0.18400
H388        H  0.10594144  0.15855839  0.18042795     0.14500
H389        H  0.10272499  0.08963101  0.18131963     0.14500
H390        H  0.18884300  0.16122838  0.31132095     0.14500
H391        H  0.18874552  0.09212987  0.31162201     0.14500
H392        H  0.09598361  0.25547058  0.23652942     0.12800
H393        H  0.11744569  0.25569685  0.27210860     0.12800
H394        H  0.07610900  0.49897093  0.24261435     0.12800
H395        H  0.10200749  0.49990358  0.27723606     0.12800
H396        H  0.10312897  0.12646928  0.23856966     0.26000
H397        H  0.12110778  0.12635680  0.26933732     0.26000
N398        N  0.37063935  0.06976772  0.25543589    -0.36800
N399        N  0.38023213  0.12048563  0.22481417    -0.57300
N400        N  0.36610461  0.17629322  0.25176931    -0.36700
N401        N  0.35327577  0.12554067  0.28167893    -0.57300
C402        C  0.37169155  0.04860968  0.23993952     0.26800
C403        C  0.35662167  0.05128636  0.26981180     0.26800
C404        C  0.36586441  0.19396291  0.23499200     0.26800
C405        C  0.35111925  0.19679779  0.26499709     0.26800
C406        C  0.39277221  0.09165946  0.21631245     0.35400
C407        C  0.39064281  0.14804441  0.21433155     0.35500
C408        C  0.35453505  0.09856454  0.29413840     0.35400
C409        C  0.35292887  0.15508101  0.29227135     0.35500
C410        C  0.35853666  0.01625331  0.24454022    -0.22000
C411        C  0.34891244  0.01797258  0.26339022    -0.22000
C412        C  0.35063158  0.22608518  0.23757401    -0.22000
C413        C  0.34118982  0.22782499  0.25649796    -0.22000
C414        C  0.41087928  0.10085145  0.20024315    -0.23100
C415        C  0.40966607  0.13665357  0.19903577    -0.23100
C416        C  0.35494731  0.11094266  0.31276320    -0.23100
C417        C  0.35412192  0.14680013  0.31158604    -0.23100
C418        C  0.38623530  0.05705052  0.22216029    -0.18400
C419        C  0.35246237  0.06298755  0.28885987    -0.18400
C420        C  0.34813502  0.18906926  0.28475484    -0.18400
C421        C  0.38176126  0.18316039  0.21792259    -0.18400
H422        H  0.34506551  0.49499511  0.23279265     0.14500
H423        H  0.33097132  0.49723957  0.26973300     0.14500
H424        H  0.34712052  0.24635336  0.22696559     0.14500
H425        H  0.32889224  0.24970211  0.26328427     0.14500
H426        H  0.42355482  0.08355467  0.19040183     0.12800
H427        H  0.42122895  0.15241961  0.18805942     0.12800
H428        H  0.35523235  0.09571605  0.32581406     0.12800
H429        H  0.35360092  0.16468089  0.32358919     0.12800
H430        H  0.38224645  0.09377742  0.25669200     0.26000
H431        H  0.37942848  0.15374167  0.25455123     0.26000
C432        C  0.40748642  0.44574646  0.08542274     0.42300
N433        N  0.45111832  0.43781514  0.10204005     0.01200
C434        C  0.05822897  0.29531533  0.09633205    -0.06700
H435        H  0.42784807  0.26671891  0.10677789     0.06700
C436        C  0.43868785  0.32507095  0.17041304    -0.07000
Co437      Co  0.49040852  0.37771265  0.08713957     0.74200
N438        N  0.45865161  0.31154144  0.10065847    -0.26200
Co439      Co  0.49575006  0.31217225  0.12130504     0.74100
C440        C  0.42816031  0.28979002  0.16534407     0.42400
N441        N  0.45568701  0.41271509  0.15775207     0.00800
N442        N  0.46103090  0.30953208  0.14359708     0.00900
N443        N  0.05425924  0.33862408  0.07443835    -0.47100
H444        H  0.42046301  0.40034364  0.06522092     0.06700
N445        N  0.45670022  0.33664581  0.08775696     0.01200
N446        N  0.03013535  0.31312466  0.14238979     0.00900
C447        C  0.06380237  0.29527659  0.16402914     0.42600
N448        N  0.45373219  0.43661734  0.14424038    -0.25700
C449        C  0.04806058  0.42457195  0.07472484    -0.06600
N450        N  0.42450215  0.45787432  0.10064914    -0.46800
N451        N  0.05055703  0.28743920  0.14687937    -0.47000
C452        C  0.06181692  0.45683390  0.08223711     0.42300
N453        N  0.52879878  0.34188605  0.08653306     0.01200
N454        N  0.02123548  0.44059387  0.14238750    -0.25700
N455        N  0.45232166  0.41350653  0.08868629    -0.26200
N456        N  0.02341434  0.41635201  0.15574706     0.00800
H457        H  0.04057898  0.49267740  0.14019544     0.06700
H458        H  0.04973478  0.34081755  0.18384782     0.06800
N459        N  0.53118906  0.31670286  0.09935971    -0.26200
N460        N  0.45966967  0.33458277  0.15659049    -0.25800
N461        N  0.52342839  0.44277747  0.10109531     0.01200
C462        C  0.41505227  0.30404770  0.08201856     0.42600
C463        C  0.43043465  0.45973424  0.14891228    -0.07100
N464        N  0.02861485  0.33758856  0.15570638    -0.25800
H465        H  0.43451571  0.33940368  0.18354113     0.06700
N466        N  0.43089515  0.33322432  0.07640695    -0.47100
H467        H  0.42663485  0.48448705  0.14176621     0.06700
C468        C  0.05503789  0.45765328  0.16546791     0.42400
C469        C  0.42589207  0.41644910  0.07752651    -0.06600
Co470      Co  0.48828095  0.44025077  0.12264147     0.73800
N471        N  0.43497626  0.41896091  0.17205233    -0.46800
C472        C  0.07385975  0.31194408  0.07976625     0.42700
N473        N  0.04450630  0.46562760  0.09802307    -0.46800
Co474      Co  0.49346696  0.37549914  0.15705043     0.73900
C475        C  0.04928991  0.32872143  0.16985904    -0.07100
C476        C  0.43337314  0.28933963  0.09806589    -0.06700
N477        N  0.52380890  0.41914559  0.08736057    -0.26200
N478        N  0.44275995  0.28212573  0.14838936    -0.46900
H479        H  0.06640499  0.27318751  0.10470312     0.06700
C480        C  0.04055791  0.46742203  0.14716016    -0.07100
Cl481      Cl  0.49204761  0.37637344  0.12207586    -0.50100
C482        C  0.41772258  0.44807347  0.16735705     0.42500
H483        H  0.05506583  0.40979709  0.06217251     0.06700
N484        N  0.04302523  0.42573798  0.16993521    -0.46800
C485        C  0.40388106  0.47271248  0.18151596    -0.06300
C486        C  0.41906405  0.47529483  0.19946692    -0.17400
C487        C  0.41955425  0.00412250  0.21207813     0.10900
C488        C  0.39389131  0.02821136  0.20865097    -0.06200
C489        C  0.37461982  0.02477554  0.19215937    -0.17400
C490        C  0.37904622  0.49704352  0.17654916     0.11000
S491        S  0.44663323  0.00740700  0.23240236    -0.32400
S492        S  0.35728549  0.49577261  0.15407975    -0.32400
H493        H  0.36024464  0.45949235  0.15127501     0.29000
H494        H  0.44636921  0.04412896  0.23337605     0.29000
H495        H  0.43857223  0.45727761  0.20329438     0.19600
H496        H  0.35468455  0.04304723  0.18961998     0.19600
C497        C  0.39218109  0.21067495  0.20408752    -0.06300
C498        C  0.41674709  0.23382477  0.21003112    -0.17400
C499        C  0.42922944  0.25961550  0.19780950     0.10900
C500        C  0.41656328  0.26266633  0.17898426    -0.06200
C501        C  0.39233507  0.23898978  0.17289948    -0.17400
C502        C  0.37967741  0.21339719  0.18529364     0.11000
S503        S  0.46262764  0.28658614  0.20640338    -0.32400
S504        S  0.34760796  0.18527735  0.17634676    -0.32400
H505        H  0.33267571  0.17868564  0.19415767     0.29000
H506        H  0.46757336  0.26950608  0.22398115     0.29000
H507        H  0.42649905  0.23117415  0.22436034     0.19600
H508        H  0.38269031  0.24094158  0.15849742     0.19600
C509        C  0.08916383  0.03532971  0.20587736    -0.06300
C510        C  0.11139834  0.01068598  0.19840083    -0.17400
C511        C  0.10106305  0.98515963  0.18537072     0.10900
C512        C  0.06392838  0.48326084  0.18023770    -0.06200
C513        C  0.04213462  0.51097139  0.18400447    -0.17400
C514        C  0.05590102  0.03446285  0.20006009     0.11000
S515        S  0.13150971  0.95502106  0.17628208    -0.32400
S516        S  0.01819414  0.56870132  0.20287608    -0.32400
H517        H  0.03903185  0.06831697  0.22740567     0.29000
H518        H  0.11591242  0.43927419  0.16827489     0.29000
H519        H  0.13696687  0.01140915  0.20276032     0.19600
H520        H  0.01914765  0.51282074  0.17623311     0.19600
C521        C  0.09657806  0.21625255  0.20347148    -0.06300
C522        C  0.06491309  0.21434731  0.19561773    -0.17400
C523        C  0.05363051  0.23945374  0.18266525     0.10900
C524        C  0.07416312  0.26796499  0.17769405    -0.06200
C525        C  0.10581666  0.26998347  0.18555455    -0.17400
C526        C  0.11756623  0.24400756  0.19794754     0.11000
S527        S  0.01290227  0.23311169  0.17305512    -0.32400
S528        S  0.15969904  0.24729270  0.20581867    -0.32400
H529        H  0.16491909  0.21115122  0.20792722     0.29000
H530        H  0.00479365  0.26869901  0.17179893     0.29000
H531        H  0.04873739  0.19308690  0.19972213     0.19600
H532        H  0.12186613  0.29140070  0.18154382     0.19600
C533        C  0.07609933  0.01241011  0.82663507    -0.06300
C534        C  0.05326351  0.98906764  0.81854789    -0.17400
C535        C  0.06273584  0.96330859  0.80545829     0.10900
C536        C  0.09632973  0.46148671  0.79958885    -0.06200
C537        C  0.11903873  0.48408815  0.80833877    -0.17400
C538        C  0.10880135  0.50972286  0.82165370     0.11000
S539        S  0.03065296  0.93588747  0.79576943    -0.32400
S540        S  0.13951353  0.53544306  0.83381015    -0.32400
H541        H  0.16841147  0.01911175  0.82420230     0.29000
H542        H  0.04658737  0.43443777  0.77554889     0.29000
H543        H  0.02747687  0.99092214  0.82241356     0.19600
H544        H  0.14491051  0.48118525  0.80490013     0.19600
C545        C  0.07839580  0.22530268  0.82375101    -0.06300
C546        C  0.05677575  0.24630755  0.81304741    -0.17400
C547        C  0.06804313  0.27266318  0.80097634     0.10900
C548        C  0.10206976  0.27879864  0.79932114    -0.06200
C549        C  0.12415329  0.25694886  0.80920319    -0.17400
C550        C  0.11267314  0.23046042  0.82153844     0.11000
S551        S  0.03755514  0.29807257  0.78836933    -0.32400
S552        S  0.14270858  0.20553068  0.83459662    -0.32400
H553        H  0.12650622  0.20920867  0.85230871     0.29000
H554        H  0.05545672  0.30124039  0.77122953     0.29000
H555        H  0.03047723  0.24260391  0.81430235     0.19600
H556        H  0.15040275  0.26106753  0.80758866     0.19600
C557        C  0.40764523  0.02054025  0.82590776    -0.06300
C558        C  0.37745859  0.00438006  0.83011510    -0.17400
C559        C  0.36450779  0.48023615  0.81519553     0.10900
C560        C  0.38468357  0.46796862  0.80005521    -0.06200
C561        C  0.41370280  0.98226259  0.79833883    -0.17400
C562        C  0.42556444  0.00963594  0.80961500     0.11000
S563        S  0.32463685  0.46184190  0.82054139    -0.32400
S564        S  0.46424032  0.02915974  0.80268825    -0.32400
H565        H  0.45807023  0.06209462  0.81091857     0.29000
H566        H  0.31826537  0.44766186  0.80240349     0.29000
H567        H  0.36140144  0.51502620  0.83942052     0.19600
H568        H  0.42785080  0.97391487  0.78596580     0.19600
C569        C  0.41355270  0.22729461  0.82338477    -0.06300
C570        C  0.38293934  0.24267820  0.82749561    -0.17400
C571        C  0.37080305  0.27047341  0.81641392     0.10900
C572        C  0.38989890  0.28340337  0.80100873    -0.06200
C573        C  0.42023521  0.26766403  0.79680701    -0.17400
C574        C  0.43205937  0.23971621  0.80766783     0.11000
S575        S  0.33142688  0.28879314  0.82302491    -0.32400
S576        S  0.47073064  0.22060965  0.80049825    -0.32400
H577        H  0.46412638  0.18685348  0.80748128     0.29000
H578        H  0.32304721  0.30217405  0.80498098     0.29000
H579        H  0.36886412  0.23368824  0.83973964     0.19600
H580        H  0.43466168  0.27703425  0.78477732     0.19600
C581        C  0.15817272  0.28052911  0.04675928    -0.06300
C582        C  0.15218968  0.31595070  0.05016157    -0.17400
C583        C  0.12513639  0.32681683  0.06100157     0.10900
C584        C  0.10418073  0.30159041  0.06942192    -0.06200
C585        C  0.11129372  0.26591846  0.06688716    -0.17400
C586        C  0.13759393  0.25510567  0.05522557     0.11000
S587        S  0.11809412  0.37304338  0.06387926    -0.32400
S588        S  0.14317354  0.20881909  0.05145567    -0.32400
H589        H  0.15711354  0.21110553  0.03308052     0.29000
H590        H  0.14295163  0.38495504  0.05142909     0.29000
H591        H  0.16823510  0.33514664  0.04359929     0.19600
H592        H  0.09526940  0.24638243  0.07316785     0.19600
C593        C  0.38375175  0.29227523  0.07361466    -0.06300
C594        C  0.38400320  0.26327847  0.06138683    -0.17400
C595        C  0.35681290  0.25567707  0.04982708     0.10900
C596        C  0.32940685  0.27863570  0.04971882    -0.06200
C597        C  0.32847217  0.30640394  0.06287226    -0.17400
C598        C  0.35489025  0.31261224  0.07524099     0.11000
S599        S  0.35905665  0.21707260  0.03502109    -0.32400
S600        S  0.35032558  0.34629422  0.09308712    -0.32400
H601        H  0.37235822  0.33151792  0.10630166     0.29000
H602        H  0.32489485  0.21166656  0.03380402     0.29000
H603        H  0.40590105  0.24714886  0.06036014     0.19600
H604        H  0.30724380  0.32358503  0.06333205     0.19600
C605        C  0.10243046  0.21350783  0.93389139    -0.06300
C606        C  0.11291524  0.24806571  0.93065271    -0.17400
C607        C  0.14186067  0.26117209  0.93922006     0.10900
C608        C  0.16059124  0.23957160  0.95156535    -0.06200
C609        C  0.14993157  0.20531614  0.95482861    -0.17400
C610        C  0.12138904  0.19220654  0.94629542     0.11000
S611        S  0.15346000  0.30566191  0.93408301    -0.32400
S612        S  0.11019175  0.14798725  0.95232423    -0.32400
H613        H  0.07598846  0.15319862  0.95097944     0.29000
H614        H  0.18730507  0.30125614  0.93742876     0.29000
H615        H  0.09922728  0.26451371  0.92087707     0.19600
H616        H  0.16350188  0.18888172  0.96469076     0.19600
C617        C  0.39314769  0.22022871  0.93652838    -0.06300
C618        C  0.37794486  0.25106503  0.93006835    -0.17400
C619        C  0.34986039  0.26472618  0.93936511     0.10900
C620        C  0.33629238  0.24663476  0.95522736    -0.06200
C621        C  0.35236978  0.21665382  0.96200368    -0.17400
C622        C  0.38059276  0.20360359  0.95303822     0.11000
S623        S  0.33257005  0.30469253  0.92998087    -0.32400
S624        S  0.39923001  0.16499882  0.96316321    -0.32400
H625        H  0.43135706  0.17239473  0.95677473     0.29000
H626        H  0.30995260  0.31174042  0.94470258     0.29000
H627        H  0.38707941  0.26369119  0.91722971     0.19600
H628        H  0.34277183  0.20325040  0.97450249     0.19600
C629        C  0.09298995  0.47258851  0.07608949    -0.06300
C630        C  0.09198963  0.49801546  0.06173971    -0.17400
C631        C  0.12050451  0.50739424  0.05175051     0.10900
C632        C  0.15019262  0.48885251  0.05509119    -0.06200
C633        C  0.15148094  0.46512498  0.07043999    -0.17400
C634        C  0.12347396  0.45809249  0.08150335     0.11000
S635        S  0.11592913  0.04621186  0.03609867    -0.32400
S636        S  0.12770411  0.42924863  0.10177769    -0.32400
H637        H  0.10091871  0.44279323  0.11218916     0.29000
H638        H  0.14947184  0.05527178  0.03636671     0.29000
H639        H  0.06865175  0.50973912  0.05782514     0.19600
H640        H  0.17403776  0.45103284  0.07342052     0.19600
C641        C  0.37552903  0.45847654  0.07806431    -0.06300
C642        C  0.35424942  0.43345790  0.07023785    -0.17400
C643        C  0.32664746  0.44306710  0.05971081     0.10900
C644        C  0.32082070  0.47871681  0.05592424    -0.06200
C645        C  0.34100579  0.50407685  0.06444483    -0.17400
C646        C  0.36779887  0.49429060  0.07592372     0.11000
S647        S  0.30147616  0.40844283  0.05011847    -0.32400
S648        S  0.38633945  0.02955018  0.08859943    -0.32400
H649        H  0.38401574  0.01165958  0.10614452     0.29000
H650        H  0.27153685  0.42671449  0.05127254     0.29000
H651        H  0.35987492  0.40600053  0.07165409     0.19600
H652        H  0.33082527  0.03463452  0.06384585     0.19600
C653        C  0.14678967  0.01224721  0.95976360    -0.06300
C654        C  0.12346646  0.03514141  0.96789623    -0.17400
C655        C  0.09516574  0.04518304  0.95802101     0.10900
C656        C  0.09015825  0.03315699  0.93920860    -0.06200
C657        C  0.11284495  0.00958687  0.93112629    -0.17400
C658        C  0.14066557  0.99834669  0.94134678     0.11000
S659        S  0.06701058  0.07456720  0.97000299    -0.32400
S660        S  0.17229582  0.46688460  0.93115380    -0.32400
H661        H  0.18129318  0.45107230  0.94853333     0.29000
H662        H  0.03945445  0.06775249  0.95849148     0.29000
H663        H  0.12749190  0.04552585  0.98213506     0.19600
H664        H  0.10944537  0.00081164  0.91651910     0.19600
C665        C  0.32275148  0.02371443  0.95754164    -0.06300
C666        C  0.33968283  0.99821612  0.94674622    -0.17400
C667        C  0.36854462  0.00648295  0.93639432     0.10900
C668        C  0.38113967  0.04096295  0.93697695    -0.06200
C669        C  0.36424519  0.06607614  0.94794690    -0.17400
C670        C  0.33557226  0.05796490  0.95813825     0.11000
S671        S  0.38750188  0.97223935  0.92250439    -0.32400
S672        S  0.31735045  0.09227847  0.97238328    -0.32400
H673        H  0.28455211  0.08299283  0.96882324     0.29000
H674        H  0.39430426  0.99343779  0.90654368     0.29000
H675        H  0.33058249  0.97160097  0.94661783     0.19600
H676        H  0.37336387  0.09268085  0.94843339     0.19600
C677        C  0.16933939  0.01484315  0.67937804    -0.06300
C678        C  0.18695767  0.01504860  0.69665287    -0.17400
C679        C  0.18168227  0.98932989  0.71059179     0.10900
C680        C  0.15515345  0.46148733  0.70554315    -0.06200
C681        C  0.13574185  0.46264300  0.68897347    -0.17400
C682        C  0.14141382  0.48792880  0.67475792     0.11000
S683        S  0.20634838  0.98885751  0.73205659    -0.32400
S684        S  0.11586234  0.48902043  0.65366952    -0.32400
H685        H  0.09679310  0.96529147  0.66126611     0.29000
H686        H  0.22959648  0.50977105  0.72264139     0.29000
H687        H  0.20568668  0.03469545  0.69894264     0.19600
H688        H  0.11619729  0.44368676  0.68726625     0.19600
C689        C  0.16101506  0.28123651  0.70553581    -0.06300
C690        C  0.14221442  0.28211053  0.68870691    -0.17400
C691        C  0.14565834  0.25625740  0.67465418     0.10900
C692        C  0.16822913  0.22869094  0.67752982    -0.06200
C693        C  0.18759440  0.22841736  0.69417084    -0.17400
C694        C  0.18454024  0.25446091  0.70803375     0.11000
S695        S  0.12042816  0.25986318  0.65354178    -0.32400
S696        S  0.21142116  0.25191253  0.72850318    -0.32400
H697        H  0.21169466  0.28789210  0.73259492     0.29000
H698        H  0.11875610  0.22388734  0.64955620     0.29000
H699        H  0.12427607  0.30278353  0.68669400     0.19600
H700        H  0.20602173  0.20827549  0.69622770     0.19600
C701        C  0.34013826  0.46220708  0.70479217    -0.06300
C702        C  0.30900593  0.46136176  0.69625073    -0.17400
C703        C  0.30030451  0.98978766  0.68550986     0.10900
C704        C  0.32265385  0.01696853  0.68101991    -0.06200
C705        C  0.35271435  0.51502837  0.68685935    -0.17400
C706        C  0.36237555  0.48917545  0.69988787     0.11000
S707        S  0.25973918  0.98656047  0.67529153    -0.32400
S708        S  0.40335553  0.49179730  0.70963222    -0.32400
H709        H  0.40776032  0.45560616  0.71206746     0.29000
H710        H  0.25371792  0.02272359  0.67518152     0.29000
H711        H  0.29178823  0.44088741  0.70011832     0.19600
H712        H  0.36982418  0.53565853  0.68310326     0.19600
C713        C  0.32188530  0.23165782  0.67844092    -0.06300
C714        C  0.29934721  0.25805163  0.68334952    -0.17400
C715        C  0.30640348  0.28228347  0.69775368     0.10900
C716        C  0.33743035  0.28151416  0.70682687    -0.06200
C717        C  0.35982226  0.25482112  0.70211639    -0.17400
C718        C  0.35218991  0.22961280  0.68824564     0.11000
S719        S  0.27451667  0.31293038  0.70435623    -0.32400
S720        S  0.38207084  0.19553891  0.68383993    -0.32400
H721        H  0.37283834  0.18807060  0.66492097     0.29000
H722        H  0.28277238  0.31425575  0.72386837     0.29000
H723        H  0.27552963  0.25897892  0.67641437     0.19600
H724        H  0.38345972  0.25376549  0.70923813     0.19600
C725        C  0.16999405  0.48694780  0.32569943    -0.06300
C726        C  0.14632776  0.51178685  0.33130891    -0.17400
C727        C  0.13855217  0.03357978  0.31640786     0.10900
C728        C  0.15396344  0.03588144  0.29830033    -0.06200
C729        C  0.18038668  0.01364868  0.29399457    -0.17400
C730        C  0.18222872  0.48791684  0.30667201     0.11000
S731        S  0.10405453  0.06071890  0.32313722    -0.32400
S732        S  0.21561213  0.46082100  0.29826038    -0.32400
H733        H  0.23538626  0.46702316  0.31441743     0.29000
H734        H  0.09101752  0.06410465  0.30462170     0.29000
H735        H  0.13694049  0.51157345  0.34584570     0.19600
H736        H  0.19272381  0.01594606  0.28027109     0.19600
C737        C  0.15420247  0.21749050  0.29703559    -0.06300
C738        C  0.18360482  0.23583590  0.29405724    -0.17400
C739        C  0.19326991  0.26251064  0.30649290     0.10900
C740        C  0.17271789  0.27147708  0.32215626    -0.06200
C741        C  0.14359715  0.25269626  0.32526587    -0.17400
C742        C  0.13382887  0.22618105  0.31274625     0.11000
S743        S  0.23249529  0.28289973  0.30183909    -0.32400
S744        S  0.09517612  0.20468741  0.31766480    -0.32400
H745        H  0.08822909  0.19400477  0.29889440     0.29000
H746        H  0.24138696  0.28621955  0.32116467     0.29000
H747        H  0.19931907  0.22895576  0.28205657     0.19600
H748        H  0.12806928  0.25911753  0.33742432     0.19600
C749        C  0.34458533  0.03644520  0.30375420    -0.06300
C750        C  0.36865375  0.01149926  0.30847521    -0.17400
C751        C  0.36048367  0.48449252  0.32108401     0.10900
C752        C  0.33008715  0.48500130  0.33089628    -0.06200
C753        C  0.30657503  0.51052839  0.32627210    -0.17400
C754        C  0.31330484  0.03467483  0.31261273     0.11000
S755        S  0.39195264  0.45237490  0.32585357    -0.32400
S756        S  0.27991364  0.06395315  0.30677895    -0.32400
H757        H  0.28852798  0.06844794  0.28743839     0.29000
H758        H  0.38378012  0.44708068  0.34520395     0.29000
H759        H  0.39258562  0.01259339  0.30159071     0.19600
H760        H  0.28284964  0.51050076  0.33343343     0.19600
C761        C  0.32495459  0.26936424  0.32604902    -0.06300
C762        C  0.30308739  0.24150847  0.32303812    -0.17400
C763        C  0.30900284  0.21639495  0.30891404     0.10900
C764        C  0.33855238  0.21767671  0.29819486    -0.06200
C765        C  0.36029078  0.24576696  0.30101661    -0.17400
C766        C  0.35366692  0.27174416  0.31468061     0.11000
S767        S  0.27764196  0.18371825  0.30512558    -0.32400
S768        S  0.38316121  0.30663242  0.31722297    -0.32400
H769        H  0.37756411  0.31272351  0.33680312     0.29000
H770        H  0.28458239  0.17814422  0.28563818     0.29000
H771        H  0.28062006  0.23981261  0.33139438     0.19600
H772        H  0.38288454  0.24707113  0.29275141     0.19600
C773        C  0.08314331  0.22258399  0.54471418    -0.06300
C774        C  0.10098427  0.19339518  0.53859255    -0.17400
C775        C  0.12850164  0.18132891  0.54863584     0.10900
C776        C  0.13882082  0.19910412  0.56550980    -0.06200
C777        C  0.12037340  0.22822494  0.57171494    -0.17400
C778        C  0.09294384  0.24026734  0.56145739     0.11000
S779        S  0.14983018  0.14375469  0.53890092    -0.32400
S780        S  0.07176132  0.27847275  0.57034008    -0.32400
H781        H  0.06046706  0.29056234  0.55254964     0.29000
H782        H  0.12449184  0.13198186  0.52683498     0.29000
H783        H  0.09341715  0.18029203  0.52558809     0.19600
H784        H  0.12752721  0.24218357  0.58450787     0.19600
C785        C  0.41142026  0.22019905  0.54762767    -0.06300
C786        C  0.40626330  0.23660417  0.56534193    -0.17400
C787        C  0.37993082  0.22689321  0.57724006     0.10900
C788        C  0.35712093  0.20150031  0.57079848    -0.06200
C789        C  0.36333752  0.18454508  0.55324420    -0.17400
C790        C  0.39029579  0.19304238  0.54188030     0.11000
S791        S  0.37827152  0.24665253  0.60055924    -0.32400
S792        S  0.39591091  0.16863822  0.51995886    -0.32400
H793        H  0.43046356  0.17076031  0.51959019     0.29000
H794        H  0.37198906  0.21481793  0.60998329     0.29000
H795        H  0.42303728  0.25691293  0.56995779     0.19600
H796        H  0.34698249  0.16431067  0.54808408     0.19600
C797        C  0.12788098  0.29703366  0.42791238    -0.06300
C798        C  0.12237770  0.26161960  0.43197442    -0.17400
C799        C  0.09566207  0.25126932  0.44336558     0.10900
C800        C  0.07423083  0.27687367  0.45097673    -0.06200
C801        C  0.07844378  0.31195413  0.44585419    -0.17400
C802        C  0.10475961  0.32226548  0.43425523     0.11000
S803        S  0.09116267  0.20537571  0.44858688    -0.32400
S804        S  0.10747464  0.36803912  0.42822724    -0.32400
H805        H  0.12370074  0.36304960  0.41061837     0.29000
H806        H  0.05672842  0.20601216  0.45061686     0.29000
H807        H  0.13986019  0.24211220  0.42707834     0.19600
H808        H  0.06164058  0.33155541  0.45141773     0.19600
C809        C  0.40685849  0.27028696  0.45368611    -0.06300
C810        C  0.40468334  0.30421385  0.44621584    -0.17400
C811        C  0.37741953  0.31460310  0.43546833     0.10900
C812        C  0.35145690  0.29072389  0.43239287    -0.06200
C813        C  0.35438603  0.25630666  0.43903164    -0.17400
C814        C  0.38190575  0.24578074  0.44955462     0.11000
S815        S  0.37725900  0.35860518  0.42616041    -0.32400
S816        S  0.38321671  0.20130125  0.45805359    -0.32400
H817        H  0.41771856  0.19825572  0.45766830     0.29000
H818        H  0.35756174  0.35148321  0.41012352     0.29000
H819        H  0.42401037  0.32294093  0.44918658     0.19600
H820        H  0.33457948  0.23788366  0.43660904     0.19600
C821        C  0.08370556  0.02422642  0.55164844    -0.06300
C822        C  0.08608230  0.05420244  0.56307955    -0.17400
C823        C  0.11378525  0.05989766  0.57443783     0.10900
C824        C  0.13992114  0.03548661  0.57403412    -0.06200
C825        C  0.13641143  0.00427813  0.56379731    -0.17400
C826        C  0.10836776  0.99821542  0.55274496     0.11000
S827        S  0.11525011  0.09966455  0.58832194    -0.32400
S828        S  0.10365020  0.45824977  0.54091447    -0.32400
H829        H  0.06918545  0.45532613  0.54008029     0.29000
H830        H  0.13707586  0.08689145  0.60225884     0.29000
H831        H  0.06688040  0.07388380  0.56253801     0.19600
H832        H  0.15647452  0.98556482  0.56342550     0.19600
C833        C  0.41282304  0.01857655  0.54992957    -0.06300
C834        C  0.39146386  0.99305516  0.55727158    -0.17400
C835        C  0.36517558  0.00232914  0.56926404     0.10900
C836        C  0.35963261  0.03791271  0.57351263    -0.06200
C837        C  0.38220338  0.06304811  0.56702425    -0.17400
C838        C  0.40870236  0.05388912  0.55533117     0.11000
S839        S  0.33801294  0.96823018  0.57729677    -0.32400
S840        S  0.43544634  0.08889867  0.54748890    -0.32400
H841        H  0.44862035  0.07292566  0.53109281     0.29000
H842        H  0.33984251  0.97839284  0.59660664     0.29000
H843        H  0.39490811  0.96590660  0.55328177     0.19600
H844        H  0.37834360  0.09042264  0.57041976     0.19600
C845        C  0.14135023  0.46658443  0.43736549    -0.06300
C846        C  0.11871295  0.48835934  0.42790432    -0.17400
C847        C  0.09074382  0.50142333  0.43749135     0.10900
C848        C  0.08410483  0.49038856  0.45643665    -0.06200
C849        C  0.10720538  0.46936714  0.46583889    -0.17400
C850        C  0.13643981  0.45944892  0.45704601     0.11000
S851        S  0.06501740  0.53231339  0.42504092    -0.32400
S852        S  0.16738274  0.44092101  0.47251189    -0.32400
H853        H  0.19409973  0.45597771  0.46264688     0.29000
H854        H  0.05387066  0.54997672  0.44148373     0.29000
H855        H  0.12271435  0.49507410  0.41301634     0.19600
H856        H  0.10311182  0.46198698  0.48064213     0.19600
C857        C  0.41096789  0.47472136  0.45625980    -0.06300
C858        C  0.40330689  0.48874512  0.43827558    -0.17400
C859        C  0.37517318  0.47788946  0.42829586     0.10900
C860        C  0.35328902  0.45357700  0.43685659    -0.06200
C861        C  0.36164479  0.43935564  0.45476445    -0.17400
C862        C  0.39040395  0.44880441  0.46420107     0.11000
S863        S  0.36918777  0.49561692  0.40471329    -0.32400
S864        S  0.39917129  0.42715280  0.48658511    -0.32400
H865        H  0.43363638  0.42910934  0.48491821     0.29000
H866        H  0.36339865  0.46272886  0.39633531     0.29000
H867        H  0.41922244  0.50845192  0.43205886     0.19600
H868        H  0.34575678  0.42060383  0.46173568     0.19600
N869        N  0.44915611  0.99372458  0.50214863    -0.36800
N870        N  0.00058505  0.99807244  0.47332434    -0.57300
N871        N  0.04325092  0.51152708  0.50174724    -0.36700
N872        N  0.99384592  0.51591165  0.53076474    -0.57300
C873        C  0.43107834  0.99402479  0.48597982     0.26800
C874        C  0.42961410  0.52088032  0.51502437     0.26800
C875        C  0.06588819  0.01850359  0.48700926     0.26800
C876        C  0.06086015  0.52457797  0.51650643     0.26800
C877        C  0.47441552  0.97705270  0.46272624     0.35400
C878        C  0.02875852  0.98921145  0.46410793     0.35500
C879        C  0.47065494  0.51604926  0.54091749     0.35400
C880        C  0.02023758  0.51533093  0.54238013     0.35500
C881        C  0.39965552  0.00628327  0.48996628    -0.22000
C882        C  0.39918648  0.53072625  0.50784356    -0.22000
C883        C  0.09399197  0.03730979  0.49160498    -0.22000
C884        C  0.08970151  0.53942426  0.50968551    -0.22000
C885        C  0.48617826  0.95955319  0.44673724    -0.23100
C886        C  0.02178877  0.96677664  0.44906772    -0.23100
C887        C  0.48016634  0.51197050  0.55980688    -0.23100
C888        C  0.01037174  0.51207460  0.56129618    -0.23100
C889        C  0.44107625  0.97949599  0.46832481    -0.18400
C890        C  0.43833512  0.52155422  0.53457529    -0.18400
C891        C  0.05272103  0.52084011  0.53606094    -0.18400
C892        C  0.06042741  0.00155037  0.46925613    -0.18400
H893        H  0.37929034  0.00869654  0.48010307     0.14500
H894        H  0.37870209  0.54190128  0.51569680     0.14500
H895        H  0.11371340  0.04488826  0.48201338     0.14500
H896        H  0.10922650  0.55121427  0.51797039     0.14500
H897        H  0.47203836  0.94496362  0.43635513     0.12800
H898        H  0.03903909  0.95483862  0.43920123     0.12800
H899        H  0.46441114  0.51027466  0.57229561     0.12800
H900        H  0.02581576  0.51173495  0.57388207     0.12800
H901        H  0.47190208  0.98156023  0.50365690     0.26000
H902        H  0.02345684  0.49450279  0.50291690     0.26000
N903        N  0.04397835  0.75513755  0.49962911    -0.36800
N904        N  0.49575871  0.74331401  0.53003903    -0.57300
N905        N  0.44491758  0.74865214  0.50083664    -0.36700
N906        N  0.49331210  0.76220530  0.47139888    -0.57300
C907        C  0.06342016  0.75770083  0.51520801     0.26800
C908        C  0.06089186  0.76878817  0.48469751     0.26800
C909        C  0.42692481  0.74971397  0.51713320     0.26800
C910        C  0.42538834  0.76051824  0.48659489     0.26800
C911        C  0.02523725  0.73159788  0.53911039     0.35400
C912        C  0.46987975  0.73050610  0.54000182     0.35500
C913        C  0.01785959  0.76280434  0.45981457     0.35400
C914        C  0.46646926  0.75969073  0.46017491     0.35500
C915        C  0.09294289  0.77347459  0.51016932    -0.22000
C916        C  0.09135572  0.78046672  0.49089674    -0.22000
C917        C  0.39565579  0.76237013  0.51323757    -0.22000
C918        C  0.39471050  0.76931099  0.49396884    -0.22000
C919        C  0.01822197  0.71098891  0.55492218    -0.23100
C920        C  0.48075558  0.71276890  0.55607553    -0.23100
C921        C  0.00710569  0.75949151  0.44110865    -0.23100
C922        C  0.47571562  0.75849187  0.44107323    -0.23100
C923        C  0.05708888  0.74175419  0.53309403    -0.18400
C924        C  0.05071597  0.76808882  0.46538078    -0.18400
C925        C  0.43374861  0.76131129  0.46693561    -0.18400
C926        C  0.43661290  0.73538590  0.53485802    -0.18400
H927        H  0.11391712  0.77825734  0.51931289     0.14500
H928        H  0.11081439  0.79187953  0.48232486     0.14500
H929        H  0.37535508  0.76539168  0.52318261     0.14500
H930        H  0.37356048  0.77898068  0.48620993     0.14500
H931        H  0.03556385  0.69949868  0.56482844     0.12800
H932        H  0.46589975  0.69978529  0.56681270     0.12800
H933        H  0.02194657  0.75928653  0.42821304     0.12800
H934        H  0.45978520  0.75707901  0.42871636     0.12800
H935        H  0.02271481  0.74017476  0.49870244     0.26000
H936        H  0.46730365  0.73594186  0.49914987     0.26000
C937        C  0.32567434  0.93370434  0.42731151     0.42300
N938        N  0.28353331  0.92996037  0.40882055     0.01200
C939        C  0.17910557  0.78809357  0.40226412    -0.06700
H940        H  0.31164469  0.76226389  0.39553108     0.06700
C941        C  0.30714502  0.82807290  0.33527370    -0.07000
Co942      Co  0.24339840  0.86698349  0.41836229     0.74200
N943        N  0.27842925  0.80444602  0.40298087    -0.26200
Co944      Co  0.24453597  0.80841330  0.38089788     0.74100
C945        C  0.31839169  0.79286435  0.34037369     0.42400
N946        N  0.28702248  0.91538297  0.35183768     0.00800
N947        N  0.28223991  0.81046977  0.36081486     0.00900
N948        N  0.17993611  0.82801169  0.42619419    -0.47100
H949        H  0.30900123  0.88518421  0.44440774     0.06700
N950        N  0.27795434  0.82702057  0.41722328     0.01200
N951        N  0.21139953  0.81343457  0.35863432     0.00900
C952        C  0.18033733  0.79789877  0.33537414     0.42600
N953        N  0.28655666  0.93725967  0.36643627    -0.25700
C954        C  0.18460380  0.91206500  0.43120446    -0.06600
N955        N  0.31028924  0.94882234  0.41224134    -0.46800
N956        N  0.19198488  0.78809442  0.35257085    -0.47000
C957        C  0.17127187  0.94627904  0.42647780     0.42300
N958        N  0.20623533  0.83059776  0.41515147     0.01200
N959        N  0.21559329  0.94059980  0.36429308    -0.25700
N960        N  0.28051109  0.90353136  0.42076670    -0.26200
N961        N  0.21598639  0.91795900  0.34999064     0.00800
H962        H  0.19557574  0.99256746  0.36687529     0.06700
H963        H  0.19397828  0.84702396  0.31810400     0.06800
N964        N  0.20640477  0.80783993  0.40097788    -0.26200
N965        N  0.28473668  0.83669108  0.34863926    -0.25800
N966        N  0.21111228  0.93427391  0.40724207     0.01200
C967        C  0.31970784  0.79466380  0.42287155     0.42600
C968        C  0.30811797  0.96293655  0.36303688    -0.07100
N969        N  0.21345504  0.83966399  0.34642392    -0.25800
H970        H  0.31105297  0.84208350  0.32201742     0.06700
N971        N  0.30233489  0.82218773  0.42940787    -0.47100
H972        H  0.30948931  0.98704443  0.37109127     0.06700
C973        C  0.18580222  0.96016193  0.33981133     0.42400
C974        C  0.30542760  0.90404526  0.43311484    -0.06600
Co975      Co  0.24914574  0.93633382  0.38680054     0.73800
N976        N  0.30755234  0.92559848  0.33816785    -0.46800
C977        C  0.16153633  0.80210902  0.41887120     0.42700
N978        N  0.18864470  0.95854740  0.41129958    -0.54000
Co979      Co  0.25033385  0.87743544  0.34895002     0.73900
C980        C  0.19417279  0.83250711  0.33138347    -0.07100
C981        C  0.30401694  0.78259746  0.40535214    -0.06700
N982        N  0.20926529  0.90715954  0.41884777    -0.26200
N983        N  0.30162088  0.78393717  0.35632281    -0.46900
H984        H  0.17193998  0.76765831  0.39243126     0.06700
C985        C  0.19679221  0.96797017  0.35926039    -0.07100
Cl986      Cl  0.24678832  0.87235816  0.38370158    -0.50100
C987        C  0.32210553  0.95541249  0.34420674     0.42500
H988        H  0.17782102  0.89435407  0.44260158     0.06700
N989        N  0.19849383  0.92866447  0.33518643    -0.46800
C990        C  0.32396602  0.55130162  0.57902532     0.42300
N991        N  0.28252244  0.56022747  0.59739361     0.01200
C992        C  0.18345352  0.70760143  0.59478179    -0.06700
H993        H  0.31067303  0.73145802  0.60607853     0.06700
C994        C  0.29840144  0.66898215  0.67019504    -0.07000
Co995      Co  0.24605584  0.62390156  0.58508509     0.74200
N996        N  0.28059122  0.68674526  0.60025536    -0.26200
Co997      Co  0.24343926  0.68590203  0.62102739     0.74100
C998        C  0.31038602  0.70401029  0.66526260     0.42400
N999        N  0.27987826  0.58037381  0.65404851     0.00800
N1000       N  0.27801537  0.68516717  0.64309139     0.00900
N1001       N  0.18782713  0.66598992  0.57208705    -0.47100
H1002       H  0.31252340  0.59970361  0.56087125     0.06700
N1003       N  0.28135407  0.66265716  0.58680831     0.01200
N1004       N  0.20706485  0.68319468  0.64194124     0.00900
C1005       C  0.17406149  0.70113911  0.66405455     0.42600
N1006       N  0.28081274  0.55733044  0.63997976    -0.25700
C1007       C  0.18509585  0.58221930  0.57251366    -0.06600
N1008       N  0.30784252  0.53877883  0.59456573    -0.46800
N1009       N  0.18778893  0.70950054  0.64704490    -0.47000
C1010       C  0.16732479  0.55196082  0.57945273     0.42300
N1011       N  0.21010543  0.66179961  0.58553898     0.01200
N1012       N  0.20941650  0.55582113  0.63949302    -0.25700
N1013       N  0.28184664  0.58594404  0.58487135    -0.26200
N1014       N  0.20857581  0.57929387  0.65331099     0.00800
H1015       H  0.18775304  0.50482702  0.63675730     0.06700
H1016       H  0.18491070  0.65271600  0.68241183     0.06800
N1017       N  0.20838783  0.68570768  0.59905762    -0.26200
N1018       N  0.27848816  0.65955100  0.65575715    -0.25800
N1019       N  0.20985635  0.55955135  0.59690923     0.01200
C1020       C  0.32375908  0.69451376  0.58066852     0.42600
C1021       C  0.30192442  0.53184458  0.64461078    -0.07100
N1022       N  0.20707413  0.65766171  0.65464325    -0.25800
H1023       H  0.30000505  0.65565104  0.68380893     0.06700
N1024       N  0.30636955  0.66641257  0.57495084    -0.47100
H1025       H  0.30415525  0.50718284  0.63713072     0.06700
C1026       C  0.17480084  0.53918859  0.66267350     0.42400
C1027       C  0.30690178  0.58245779  0.57269851    -0.06600
Co1028     Co  0.24569803  0.55737380  0.61837389     0.73800
N1029       N  0.29878643  0.57111073  0.66860165    -0.46800
C1030       C  0.16994978  0.69434690  0.57663734     0.42700
N1031       N  0.18393978  0.53883367  0.59458624    -0.46800
Co1032     Co  0.24355009  0.61920107  0.65470234     0.73900
C1033       C  0.18635370  0.66618851  0.66882545    -0.07100
C1034       C  0.30616367  0.70851338  0.59752190    -0.06700
N1035       N  0.21073884  0.58514523  0.58426680    -0.26200
N1036       N  0.29622223  0.71217391  0.64836994    -0.46900
H1037       H  0.17651425  0.73044707  0.60298150     0.06700
C1038       C  0.18865627  0.52982058  0.64398531    -0.07100
Cl1039     Cl  0.24472178  0.62157897  0.61986252    -0.50100
C1040       C  0.31357697  0.54065118  0.66375904     0.42500
H1041       H  0.17904843  0.59972421  0.56091554     0.06700
N1042       N  0.18848381  0.57022516  0.66738656    -0.46800
N1043       N  0.18661614  0.99795454  0.00593117    -0.36800
N1044       N  0.23792462  0.50403546  0.97698680    -0.57300
N1045       N  0.28551688  0.00472910  0.00526765    -0.36700
N1046       N  0.23521898  0.99700442  0.03498530    -0.57300
C1047       C  0.17171897  0.48927268  0.99078437     0.26800
C1048       C  0.16914572  0.98577219  0.02105525     0.26800
C1049       C  0.30586328  0.49817439  0.99106983     0.26800
C1050       C  0.30416829  0.99472717  0.02033342     0.26800
C1051       C  0.21062098  0.51330912  0.96710674     0.35400
C1052       C  0.26421869  0.51667537  0.96725517     0.35500
C1053       C  0.20861226  0.00013007  0.04649646     0.35400
C1054       C  0.26190995  0.00114701  0.04611446     0.35500
C1055       C  0.14405018  0.46986285  0.99545523    -0.22000
C1056       C  0.14135279  0.96843408  0.01460069    -0.22000
C1057       C  0.33610588  0.48360276  0.99561087    -0.22000
C1058       C  0.33561098  0.98634991  0.01391358    -0.22000
C1059       C  0.21963055  0.53166435  0.95081501    -0.23100
C1060       C  0.25364966  0.53362892  0.95085704    -0.23100
C1061       C  0.21841198  0.00694036  0.06509441    -0.23100
C1062       C  0.25232018  0.00696985  0.06490525    -0.23100
C1063       C  0.17808725  0.50388593  0.97260047    -0.18400
C1064       C  0.17618216  0.99294600  0.04048694    -0.18400
C1065       C  0.29439054  0.99481671  0.03986809    -0.18400
C1066       C  0.29747007  0.51185001  0.97292011    -0.18400
H1067       H  0.12515884  0.46065858  0.98580799     0.14500
H1068       H  0.12225526  0.95636792  0.02317895     0.14500
H1069       H  0.35652590  0.47863994  0.98598606     0.14500
H1070       H  0.35652771  0.97829844  0.02239620     0.14500
H1071       H  0.20346267  0.54240047  0.94003093     0.12800
H1072       H  0.26882906  0.54619547  0.94012598     0.12800
H1073       H  0.20291162  0.01011532  0.07759969     0.12800
H1074       H  0.26808544  0.01015151  0.07723019     0.12800
H1075       H  0.20574127  0.01603206  0.00650353     0.26000
H1076       H  0.26230594  0.01610630  0.00598093     0.26000
N1077       N  0.29100178  0.76836448  0.99980121    -0.36800
N1078       N  0.24031749  0.77647216  0.02774169    -0.57300
N1079       N  0.19200452  0.76617571  0.99738039    -0.36700
N1080       N  0.24304012  0.76005983  0.96871802    -0.57300
C1081       C  0.30870371  0.78045474  0.01479876     0.26800
C1082       C  0.31006882  0.77161258  0.98403761     0.26800
C1083       C  0.17263660  0.77832863  0.01167903     0.26800
C1084       C  0.17410847  0.76763540  0.98109859     0.26800
C1085       C  0.26599959  0.77497798  0.03992093     0.35400
C1086       C  0.21284668  0.77465606  0.03852814     0.35500
C1087       C  0.27077459  0.74943142  0.95964922     0.35400
C1088       C  0.21728785  0.74792321  0.95840929     0.35500
C1089       C  0.33916083  0.79198565  0.00840658    -0.22000
C1090       C  0.34008222  0.78623573  0.98900207    -0.22000
C1091       C  0.14209400  0.78757961  0.00436419    -0.22000
C1092       C  0.14298517  0.78065745  0.98511823    -0.22000
C1093       C  0.25481975  0.77231957  0.05861309    -0.23100
C1094       C  0.22102711  0.77245134  0.05774306    -0.23100
C1095       C  0.26265178  0.73141395  0.94310870    -0.23100
C1096       C  0.22868877  0.73051231  0.94230726    -0.23100
C1097       C  0.29918717  0.77848214  0.03427451    -0.18400
C1098       C  0.30317235  0.75662425  0.96602552    -0.18400
C1099       C  0.18376335  0.75343228  0.96329489    -0.18400
C1100       C  0.18070307  0.77862644  0.03136683    -0.18400
H1101       H  0.35905425  0.80243693  0.01692702     0.14500
H1102       H  0.36092386  0.79106907  0.97967877     0.14500
H1103       H  0.12087586  0.79727434  0.01213710     0.14500
H1104       H  0.12265976  0.78405852  0.97533762     0.14500
H1105       H  0.26939427  0.77121869  0.07152975     0.12800
H1106       H  0.20441321  0.77160298  0.06987577     0.12800
H1107       H  0.27942335  0.72007800  0.93274984     0.12800
H1108       H  0.21408932  0.71837129  0.93122190     0.12800
H1109       H  0.26960838  0.75358419  0.00061271     0.26000
H1110       H  0.21424823  0.75315464  0.99907979     0.26000
C1111       C  0.40857186  0.55120052  0.92521032     0.42300
N1112       N  0.42824881  0.58429937  0.90324459     0.01200
C1113       C  0.07231094  0.57301573  0.84701128    -0.06700
H1114       H  0.10077025  0.59597085  0.91562902     0.06700
C1115       C  0.03942771  0.70986838  0.91647303    -0.07000
Co1116     Co  0.49031409  0.55866977  0.88491568     0.74200
N1117       N  0.05372910  0.58571976  0.90269540    -0.26200
Co1118     Co  0.05199460  0.62329097  0.88113329     0.74100
C1119       C  0.07154802  0.69650704  0.92315390     0.42400
N1120       N  0.45022607  0.68532975  0.90436607     0.00800
N1121       N  0.05198312  0.66188450  0.90190711     0.00900
N1122       N  0.03503157  0.53011497  0.85158652    -0.47100
H1123       H  0.45355127  0.51404529  0.92317390     0.06700
N1124       N  0.03154359  0.56074440  0.90498715     0.01200
N1125       N  0.04933539  0.66352869  0.86027597     0.00900
C1126       C  0.05984873  0.70375643  0.83943961     0.42600
N1127       N  0.42810219  0.66017709  0.90285030    -0.25700
C1128       C  0.45084835  0.53219285  0.85048428    -0.06600
N1129       N  0.40273658  0.57984805  0.91473629    -0.46800
N1130       N  0.07080608  0.67273304  0.84667239    -0.47000
C1131       C  0.42224528  0.54302968  0.83971192     0.42300
N1132       N  0.02997905  0.55644800  0.86349562     0.01200
N1133       N  0.43031024  0.66134852  0.86127223    -0.25700
N1134       N  0.45158655  0.56052490  0.90543634    -0.26200
N1135       N  0.45211565  0.68679847  0.86271450     0.00800
H1136       H  0.38801578  0.65445562  0.84289190     0.06700
H1137       H  0.01594007  0.73679965  0.84952931     0.06800
N1138       N  0.05122769  0.58221658  0.86112093    -0.26200
N1139       N  0.02875468  0.68595580  0.90361474    -0.25800
N1140       N  0.43150024  0.58089424  0.86173540     0.01200
C1141       C  0.06981500  0.54926600  0.92528878     0.42600
C1142       C  0.40411250  0.66544309  0.91556164    -0.07100
N1143       N  0.02598461  0.68723696  0.86242124    -0.25800
H1144       H  0.02768728  0.73464649  0.91955252     0.06700
N1145       N  0.04079512  0.53748990  0.91813130    -0.47100
H1146       H  0.38167520  0.65037267  0.91668401     0.06700
C1147       C  0.42233693  0.70192396  0.83882451     0.42400
C1148       C  0.44118391  0.53795711  0.91910728    -0.06600
Co1149     Co  0.42909626  0.62173100  0.88197038     0.73800
N1150       N  0.44133544  0.70933203  0.91719592    -0.46800
C1151       C  0.06146689  0.53803629  0.84074019     0.42700
N1152       N  0.41079309  0.57314248  0.84761874    -0.46800
Co1153     Co  0.48823220  0.68744717  0.88387523     0.73900
C1154       C  0.03039431  0.71304498  0.84998820    -0.07100
C1155       C  0.07833917  0.58081484  0.91502594    -0.06700
N1156       N  0.45460272  0.55684399  0.86379664    -0.26200
N1157       N  0.07732862  0.66711556  0.91325547    -0.46900
H1158       H  0.09306605  0.58843776  0.84227133     0.06700
C1159       C  0.40973069  0.66910065  0.84680139    -0.07100
Cl1160     Cl  0.48925909  0.62301524  0.88303149    -0.50100
C1161       C  0.41289943  0.69754423  0.92514722     0.42500
H1162       H  0.46576017  0.50890565  0.84893540     0.06700
N1163       N  0.44826943  0.71133116  0.84956594    -0.46800
N1164       N  0.14864792  0.87225365  0.72619854    -0.36800
N1165       N  0.13454015  0.81673312  0.75354166    -0.57300
N1166       N  0.11305046  0.86943163  0.78094429    -0.36700
N1167       N  0.13087520  0.92489908  0.75439753    -0.57300
C1168       C  0.16232037  0.84445323  0.71723762     0.26800
C1169       C  0.16101097  0.90134147  0.71788314     0.26800
C1170       C  0.11235327  0.84048344  0.79210459     0.26800
C1171       C  0.11047787  0.89762967  0.79259965     0.26800
C1172       C  0.13779883  0.79764435  0.73736799     0.35400
C1173       C  0.11961729  0.79574517  0.76648146     0.35500
C1174       C  0.13376448  0.94540262  0.73874212     0.35400
C1175       C  0.11489614  0.94415747  0.76771993     0.35500
C1176       C  0.18370332  0.85593885  0.70307143    -0.22000
C1177       C  0.18293728  0.89193447  0.70350381    -0.22000
C1178       C  0.10903625  0.85040484  0.81110178    -0.22000
C1179       C  0.10790253  0.88644292  0.81141772    -0.22000
C1180       C  0.12528523  0.76430804  0.74012989    -0.23100
C1181       C  0.11388913  0.76306342  0.75860788    -0.23100
C1182       C  0.11986873  0.97792679  0.74217895    -0.23100
C1183       C  0.10795887  0.97716645  0.76057245    -0.23100
C1184       C  0.15379635  0.80918171  0.72053366    -0.18400
C1185       C  0.15074559  0.93590734  0.72185959    -0.18400
C1186       C  0.10776175  0.93293659  0.78654250    -0.18400
C1187       C  0.11151025  0.80544178  0.78542870    -0.18400
H1188       H  0.19788178  0.84002745  0.69322590     0.14500
H1189       H  0.19644871  0.90920962  0.69405955     0.14500
H1190       H  0.10694274  0.83340235  0.82342329     0.14500
H1191       H  0.10479580  0.90254630  0.82403540     0.14500
H1192       H  0.12452407  0.74303829  0.72992393     0.12800
H1193       H  0.10242637  0.74073604  0.76540593     0.12800
H1194       H  0.11751075  0.49908627  0.73080106     0.12800
H1195       H  0.09640507  0.49928148  0.76657887     0.12800
H1196       H  0.12878283  0.87136245  0.73556026     0.26000
H1197       H  0.11105399  0.86976155  0.76618177     0.26000
N1198       N  0.36087623  0.92659411  0.75576128    -0.36800
N1199       N  0.36710828  0.87328030  0.78526459    -0.57300
N1200       N  0.35599281  0.81998451  0.75588580    -0.36700
N1201       N  0.34650850  0.87334668  0.72720966    -0.57300
C1202       C  0.36051558  0.94648507  0.77177685     0.26800
C1203       C  0.34911101  0.94660157  0.74134435     0.26800
C1204       C  0.35490529  0.80056500  0.77204528     0.26800
C1205       C  0.34238505  0.80067101  0.74169982     0.26800
C1206       C  0.37839487  0.90128898  0.79511322     0.35400
C1207       C  0.37669833  0.84452120  0.79506887     0.35500
C1208       C  0.34938364  0.90149713  0.71564539     0.35400
C1209       C  0.34646184  0.84486666  0.71572919     0.35500
C1210       C  0.34858477  0.97952858  0.76748834    -0.22000
C1211       C  0.34116812  0.97954223  0.74831293    -0.22000
C1212       C  0.34042686  0.76855725  0.76814334    -0.22000
C1213       C  0.33227349  0.76872453  0.74903116    -0.22000
C1214       C  0.39442063  0.89033098  0.81152133    -0.23100
C1215       C  0.39341855  0.85434239  0.81147371    -0.23100
C1216       C  0.35117875  0.89087618  0.69670130    -0.23100
C1217       C  0.34939988  0.85498496  0.69675688    -0.23100
C1218       C  0.37336543  0.93661263  0.78974974    -0.18400
C1219       C  0.34740457  0.93666816  0.72185463    -0.18400
C1220       C  0.34098140  0.81019606  0.72209836    -0.18400
C1221       C  0.36964882  0.80959411  0.78967936    -0.18400
H1222       H  0.34562318  0.50220456  0.77402506     0.14500
H1223       H  0.33053736  0.50038914  0.73734879     0.14500
H1224       H  0.33656244  0.74713214  0.77801254     0.14500
H1225       H  0.32084586  0.74742202  0.74133300     0.14500
H1226       H  0.40572346  0.90656011  0.82234731     0.12800
H1227       H  0.40376714  0.83736394  0.82228922     0.12800
H1228       H  0.35302342  0.90730865  0.68413712     0.12800
H1229       H  0.34959124  0.83830324  0.68424483     0.12800
H1230       H  0.37230818  0.90244278  0.75428657     0.26000
H1231       H  0.36925144  0.84295492  0.75419627     0.26000
N1232       N  0.09604170  0.62570445  0.22478203    -0.36800
N1233       N  0.11902417  0.67998089  0.25012807    -0.57300
N1234       N  0.13342229  0.62734164  0.27906870    -0.36700
N1235       N  0.11340196  0.57279779  0.25309595    -0.57300
C1236       C  0.09845558  0.65293932  0.21245255     0.26800
C1237       C  0.09463480  0.59612836  0.21420207     0.26800
C1238       C  0.14815707  0.65581846  0.28659347     0.26800
C1239       C  0.14638660  0.59898660  0.28784761     0.26800
C1240       C  0.10503768  0.70005657  0.23647932     0.35400
C1241       C  0.12350128  0.70090989  0.26545104     0.35500
C1242       C  0.09627802  0.55277394  0.24072697     0.35400
C1243       C  0.11726114  0.55355335  0.26915780     0.35500
C1244       C  0.09842423  0.64052661  0.19381894    -0.22000
C1245       C  0.09607622  0.60467136  0.19491436    -0.22000
C1246       C  0.17066073  0.64555630  0.30037358    -0.22000
C1247       C  0.16967095  0.60960204  0.30109770    -0.22000
C1248       C  0.10067770  0.73389165  0.24314770    -0.23100
C1249       C  0.11247910  0.73445328  0.26151806    -0.23100
C1250       C  0.08914675  0.52067742  0.24899489    -0.23100
C1251       C  0.10263488  0.52111165  0.26698972    -0.23100
C1252       C  0.09861116  0.68875653  0.21762477    -0.18400
C1253       C  0.08976626  0.56193925  0.22151189    -0.18400
C1254       C  0.13583651  0.56411373  0.28518726    -0.18400
C1255       C  0.13985708  0.69080844  0.28233672    -0.18400
H1256       H  0.09967843  0.65574266  0.18078159     0.14500
H1257       H  0.09513512  0.58694393  0.18285533     0.14500
H1258       H  0.18592334  0.66226756  0.30913894     0.14500
H1259       H  0.18400616  0.59319698  0.31055656     0.14500
H1260       H  0.09054356  0.75599147  0.23548843     0.12800
H1261       H  0.11332300  0.75708190  0.27080788     0.12800
H1262       H  0.09211344  0.99662001  0.23872438     0.12800
H1263       H  0.11576579  0.99694110  0.27388791     0.12800
H1264       H  0.09164126  0.62736185  0.23941062     0.26000
H1265       H  0.11285696  0.62764144  0.27027149     0.26000
N1266       N  0.36534547  0.56904597  0.25337563    -0.36800
N1267       N  0.37597743  0.62047365  0.22300453    -0.57300
N1268       N  0.36706350  0.67553839  0.25097094    -0.36700
N1269       N  0.35355057  0.62398107  0.28057530    -0.57300
C1270       C  0.36359250  0.54877592  0.23758782     0.26800
C1271       C  0.35223518  0.55052614  0.26802495     0.26800
C1272       C  0.36735989  0.69411819  0.23450003     0.26800
C1273       C  0.35301627  0.69593009  0.26457198     0.26800
C1274       C  0.38616081  0.59112509  0.21397251     0.35400
C1275       C  0.38825401  0.64766876  0.21288516     0.35500
C1276       C  0.35507726  0.59670048  0.29280038     0.35400
C1277       C  0.35456177  0.65317911  0.29137298     0.35500
C1278       C  0.34919425  0.51700409  0.24221950    -0.22000
C1279       C  0.34199056  0.51812030  0.26146297    -0.22000
C1280       C  0.35351095  0.72676665  0.23765948    -0.22000
C1281       C  0.34425069  0.72784136  0.25662853    -0.22000
C1282       C  0.40449856  0.59970481  0.19787513    -0.23100
C1283       C  0.40592334  0.63556438  0.19722711    -0.23100
C1284       C  0.35716645  0.60857567  0.31148820    -0.23100
C1285       C  0.35678541  0.64445229  0.31058726    -0.23100
C1286       C  0.37816265  0.55673065  0.21973866    -0.18400
C1287       C  0.35108471  0.56146115  0.28732703    -0.18400
C1288       C  0.35009474  0.68735049  0.28420742    -0.18400
C1289       C  0.38211892  0.68323405  0.21712297    -0.18400
H1290       H  0.35635446  0.99364500  0.23531565     0.14500
H1291       H  0.33780246  0.99692785  0.27149108     0.14500
H1292       H  0.35065135  0.74772248  0.22738923     0.14500
H1293       H  0.33291951  0.74986592  0.26382916     0.14500
H1294       H  0.41581080  0.58200722  0.18770015     0.12800
H1295       H  0.41840511  0.65093000  0.18641993     0.12800
H1296       H  0.35799195  0.59302542  0.32441582     0.12800
H1297       H  0.35732839  0.66208755  0.32269793     0.12800
H1298       H  0.37870144  0.59206458  0.25454183     0.26000
H1299       H  0.37942152  0.65215570  0.25329665     0.26000
C1300       C  0.40615250  0.94831222  0.08285704     0.42300
N1301       N  0.44890964  0.93945531  0.10019218     0.01200
C1302       C  0.05761280  0.80185024  0.09626676    -0.06700
H1303       H  0.42461921  0.76879999  0.10515475     0.06700
C1304       C  0.43783509  0.82600863  0.16950608    -0.07000
Co1305     Co  0.48826701  0.87909726  0.08543519     0.74200
N1306       N  0.45577168  0.81333516  0.09907358    -0.26200
Co1307     Co  0.49281171  0.81347086  0.11974661     0.74100
C1308       C  0.42734626  0.79066267  0.16456605     0.42400
N1309       N  0.45410285  0.91385653  0.15619978     0.00800
N1310       N  0.45844137  0.81098003  0.14213453     0.00900
N1311       N  0.05165713  0.84502585  0.07449551    -0.47100
H1312       H  0.42000406  0.90320276  0.06255871     0.06700
N1313       N  0.45420157  0.83833646  0.08608278     0.01200
N1314       N  0.02950376  0.81646536  0.14219668     0.00900
C1315       C  0.06291783  0.79747554  0.16371761     0.42600
N1316       N  0.45159107  0.93802995  0.14283394    -0.25700
C1317       C  0.04500435  0.92819104  0.07480162    -0.06600
N1318       N  0.42261092  0.95991218  0.09843740    -0.46800
N1319       N  0.04964214  0.79042863  0.14648296    -0.47000
C1320       C  0.06055483  0.95905227  0.08283713     0.42300
N1321       N  0.52641314  0.84284346  0.08512719     0.01200
N1322       N  0.01982970  0.94392372  0.14276218    -0.25700
N1323       N  0.45046315  0.91534145  0.08673729    -0.26200
N1324       N  0.02249940  0.91948031  0.15598427     0.00800
H1325       H  0.04052550  0.99545785  0.14012172     0.06700
H1326       H  0.04913392  0.84255398  0.18391307     0.06800
N1327       N  0.52801471  0.81767589  0.09799759    -0.26200
N1328       N  0.45767069  0.83591774  0.15519736    -0.25800
N1329       N  0.52132153  0.94420985  0.09924742     0.01200
C1330       C  0.41245207  0.80595753  0.08022030     0.42600
C1331       C  0.42904354  0.96152753  0.14833117    -0.07100
N1332       N  0.02820479  0.84058360  0.15569965    -0.25800
H1333       H  0.43469372  0.84001928  0.18283113     0.06700
N1334       N  0.42850747  0.83503953  0.07463904    -0.47100
H1335       H  0.42524938  0.98666122  0.14158699     0.06700
C1336       C  0.05611978  0.95974110  0.16489624     0.42400
C1337       C  0.42473347  0.91893226  0.07510781    -0.06600
Co1338     Co  0.48602220  0.94178112  0.12092442     0.73800
N1339       N  0.43470710  0.92019094  0.17106312    -0.46800
C1340       C  0.07258542  0.81961808  0.07980329     0.42700
N1341       N  0.04354933  0.96807253  0.09873280    -0.46800
Co1342     Co  0.49162999  0.87663254  0.15524192     0.73900
C1343       C  0.04879796  0.83103873  0.16977779    -0.07100
C1344       C  0.43041789  0.79129289  0.09640409    -0.06700
N1345       N  0.52186301  0.92027541  0.08565391    -0.26200
N1346       N  0.44087816  0.78328782  0.14728748    -0.46900
H1347       H  0.06692486  0.78028716  0.10467578     0.06700
C1348       C  0.04005154  0.97028801  0.14716978    -0.07100
Cl1349     Cl  0.48965862  0.87774733  0.12036730    -0.50100
C1350       C  0.41779146  0.94979116  0.16714268     0.42500
H1351       H  0.05066113  0.91415232  0.06181489     0.06700
N1352       N  0.04341460  0.92824096  0.16967127    -0.46800
C1353       C  0.40680308  0.97444367  0.18209284    -0.06300
C1354       C  0.42533392  0.97715420  0.19897295    -0.17400
C1355       C  0.41148990  0.50269246  0.21195627     0.10900
C1356       C  0.38700226  0.52722610  0.20689046    -0.06200
C1357       C  0.37077571  0.52383618  0.18932293    -0.17400
C1358       C  0.38078617  0.99823484  0.17886649     0.11000
S1359       S  0.43531971  0.50617796  0.23361185    -0.32400
S1360       S  0.35464539  0.99624181  0.15807942    -0.32400
H1361       H  0.35753749  0.95996063  0.15525556     0.29000
H1362       H  0.43643260  0.54292561  0.23382672     0.29000
H1363       H  0.44569392  0.95940748  0.20146743     0.19600
H1364       H  0.35184536  0.54251828  0.18545350     0.19600
C1365       C  0.39286337  0.71072183  0.20329398    -0.06300
C1366       C  0.41810998  0.73337021  0.20897464    -0.17400
C1367       C  0.43008181  0.75955476  0.19676616     0.10900
C1368       C  0.41638332  0.76331097  0.17823459    -0.06200
C1369       C  0.39158354  0.74014943  0.17241787    -0.17400
C1370       C  0.37925874  0.71441114  0.18480691     0.11000
S1371       S  0.46396370  0.78630924  0.20491596    -0.32400
S1372       S  0.34585963  0.68765349  0.17625778    -0.32400
H1373       H  0.33196539  0.68047369  0.19427563     0.29000
H1374       H  0.46948563  0.76908570  0.22239329     0.29000
H1375       H  0.42861827  0.73018054  0.22308653     0.19600
H1376       H  0.38108912  0.74274950  0.15824965     0.19600
C1377       C  0.07920571  0.53396199  0.20805539    -0.06300
C1378       C  0.10061562  0.50574040  0.20456199    -0.17400
C1379       C  0.09305032  0.48013720  0.19098337     0.10900
C1380       C  0.06798890  0.98474164  0.17930950    -0.06200
C1381       C  0.04580818  0.00953735  0.18666884    -0.17400
C1382       C  0.04903737  0.53578462  0.19809203     0.11000
S1383       S  0.12163385  0.44441829  0.18790067    -0.32400
S1384       S  0.02528143  0.06452703  0.20909531    -0.32400
H1385       H  0.02595610  0.57299377  0.22232835     0.29000
H1386       H  0.11009028  0.92652471  0.17401943     0.29000
H1387       H  0.12363523  0.50395467  0.21229631     0.19600
H1388       H  0.02034302  0.00924775  0.18207272     0.19600
C1389       C  0.09099122  0.71559840  0.20274513    -0.06300
C1390       C  0.05940425  0.71577975  0.19472124    -0.17400
C1391       C  0.04959492  0.74204658  0.18202663     0.10900
C1392       C  0.07175788  0.76924922  0.17722153    -0.06200
C1393       C  0.10350437  0.76887088  0.18500751    -0.17400
C1394       C  0.11358291  0.74205396  0.19737663     0.11000
S1395       S  0.00837296  0.73924020  0.17266985    -0.32400
S1396       S  0.15559714  0.74293671  0.20565604    -0.32400
H1397       H  0.15866450  0.70668085  0.20845394     0.29000
H1398       H  0.00243032  0.77538585  0.17275719     0.29000
H1399       H  0.04195924  0.69562006  0.19872830     0.19600
H1400       H  0.12080260  0.78923592  0.18111095     0.19600
C1401       C  0.07490862  0.51331471  0.82608050    -0.06300
C1402       C  0.05248539  0.49036983  0.81732028    -0.17400
C1403       C  0.06262368  0.46509047  0.80406122     0.10900
C1404       C  0.09624106  0.95978101  0.80049620    -0.06200
C1405       C  0.11932331  0.98280496  0.80851225    -0.17400
C1406       C  0.10973457  0.00897980  0.82159665     0.11000
S1407       S  0.03129938  0.43789243  0.79351923    -0.32400
S1408       S  0.14098288  0.03589259  0.83245662    -0.32400
H1409       H  0.16705853  0.51613801  0.82759498     0.29000
H1410       H  0.04677610  0.92604794  0.77879785     0.29000
H1411       H  0.02656529  0.49209528  0.82084399     0.19600
H1412       H  0.14498276  0.97992741  0.80455812     0.19600
C1413       C  0.07478179  0.72677857  0.82451911    -0.06300
C1414       C  0.05327258  0.74978925  0.81495892    -0.17400
C1415       C  0.06462977  0.77500422  0.80215912     0.10900
C1416       C  0.09860354  0.77783782  0.79849155    -0.06200
C1417       C  0.12035273  0.75420225  0.80733065    -0.17400
C1418       C  0.10887418  0.72904412  0.82048001     0.11000
S1419       S  0.03441170  0.80334195  0.79128940    -0.32400
S1420       S  0.13897586  0.70234184  0.83238573    -0.32400
H1421       H  0.12563118  0.70799006  0.85073678     0.29000
H1422       H  0.05063886  0.80682579  0.77360225     0.29000
H1423       H  0.02703204  0.74847517  0.81752164     0.19600
H1424       H  0.14651041  0.75616178  0.80443772     0.19600
C1425       C  0.40725066  0.52202357  0.82429256    -0.06300
C1426       C  0.37608538  0.50704778  0.82719417    -0.17400
C1427       C  0.36540936  0.97687984  0.81874572     0.10900
C1428       C  0.38409865  0.96524637  0.80280345    -0.06200
C1429       C  0.41513188  0.48404476  0.79671871    -0.17400
C1430       C  0.42653009  0.51084904  0.80855245     0.11000
S1431       S  0.32671081  0.95748755  0.82583360    -0.32400
S1432       S  0.46641277  0.52913840  0.80308081    -0.32400
H1433       H  0.46037056  0.56209553  0.81131915     0.29000
H1434       H  0.32142418  0.93623129  0.80978976     0.29000
H1435       H  0.36395192  0.01210133  0.84283885     0.19600
H1436       H  0.43041287  0.47519879  0.78491649     0.19600
C1437       C  0.40674372  0.72590369  0.82500721    -0.06300
C1438       C  0.37702056  0.74238114  0.83000963    -0.17400
C1439       C  0.36396888  0.76949228  0.81877598     0.10900
C1440       C  0.38100460  0.78038105  0.80214253    -0.06200
C1441       C  0.41029511  0.76332091  0.79697093    -0.17400
C1442       C  0.42334536  0.73639217  0.80817218     0.11000
S1443       S  0.32637312  0.78994412  0.82681503    -0.32400
S1444       S  0.46155071  0.71695761  0.80026392    -0.32400
H1445       H  0.45785505  0.68481724  0.80976457     0.29000
H1446       H  0.31535368  0.80046496  0.80867076     0.29000
H1447       H  0.36450077  0.73491801  0.84310425     0.19600
H1448       H  0.42336250  0.77144390  0.78417109     0.19600
C1449       C  0.15439893  0.78803563  0.04502532    -0.06300
C1450       C  0.14657730  0.82341392  0.04660648    -0.17400
C1451       C  0.12022487  0.83452355  0.05786837     0.10900
C1452       C  0.10211945  0.80969674  0.06866420    -0.06200
C1453       C  0.11117823  0.77428990  0.06777717    -0.17400
C1454       C  0.13654384  0.76306943  0.05564021     0.11000
S1455       S  0.11027789  0.88039706  0.05777144    -0.32400
S1456       S  0.14443456  0.71675587  0.05404258    -0.32400
H1457       H  0.15651765  0.71672292  0.03518233     0.29000
H1458       H  0.13635542  0.89211541  0.04613755     0.29000
H1459       H  0.16057299  0.84216648  0.03829736     0.19600
H1460       H  0.09732502  0.75498079  0.07577309     0.19600
C1461       C  0.38048303  0.79511297  0.07231744    -0.06300
C1462       C  0.37874839  0.76413040  0.06169413    -0.17400
C1463       C  0.35108720  0.75666215  0.05049421     0.10900
C1464       C  0.32532912  0.78150414  0.04912992    -0.06200
C1465       C  0.32614065  0.81128023  0.06087693    -0.17400
C1466       C  0.35295790  0.81760744  0.07292161     0.11000
S1467       S  0.35059749  0.71573779  0.03765757    -0.32400
S1468       S  0.35055329  0.85419033  0.08912312    -0.32400
H1469       H  0.37191391  0.84022625  0.10295870     0.29000
H1470       H  0.31612746  0.71261457  0.03697924     0.29000
H1471       H  0.39951146  0.74630019  0.06156089     0.19600
H1472       H  0.30604316  0.82992823  0.06043377     0.19600
C1473       C  0.09813257  0.71285407  0.93457039    -0.06300
C1474       C  0.10819475  0.74734095  0.93085296    -0.17400
C1475       C  0.13737716  0.76080796  0.93885413     0.10900
C1476       C  0.15682809  0.73948434  0.95096726    -0.06200
C1477       C  0.14660195  0.70519673  0.95462225    -0.17400
C1478       C  0.11760957  0.69188012  0.94680482     0.11000
S1479       S  0.14808562  0.80547175  0.93346063    -0.32400
S1480       S  0.10636537  0.64792374  0.95349673    -0.32400
H1481       H  0.07214394  0.65337114  0.95259794     0.29000
H1482       H  0.18185539  0.80241128  0.93741874     0.29000
H1483       H  0.09393836  0.76344254  0.92117672     0.19600
H1484       H  0.16071897  0.68905060  0.96436534     0.19600
C1485       C  0.38943175  0.71694533  0.93726709    -0.06300
C1486       C  0.37410359  0.74719341  0.93013597    -0.17400
C1487       C  0.34566721  0.76093299  0.93893750     0.10900
C1488       C  0.33207092  0.74358560  0.95500838    -0.06200
C1489       C  0.34803836  0.71396722  0.96231444    -0.17400
C1490       C  0.37650936  0.70075001  0.95378281     0.11000
S1491       S  0.32779928  0.79983840  0.92863207    -0.32400
S1492       S  0.39486137  0.66239160  0.96437676    -0.32400
H1493       H  0.42719382  0.66957176  0.95827809     0.29000
H1494       H  0.30659247  0.80881487  0.94374763     0.29000
H1495       H  0.38344844  0.75924401  0.91718137     0.19600
H1496       H  0.33822418  0.70108896  0.97492303     0.19600
C1497       C  0.09217711  0.97392687  0.07651678    -0.06300
C1498       C  0.09134860  0.00110366  0.06314302    -0.17400
C1499       C  0.11946672  0.01024345  0.05266574     0.10900
C1500       C  0.14872667  0.99042744  0.05475619    -0.06200
C1501       C  0.15013631  0.96495639  0.06923804    -0.17400
C1502       C  0.12246290  0.95734149  0.08055174     0.11000
S1503       S  0.11696452  0.54178638  0.03417609    -0.32400
S1504       S  0.12693039  0.92497681  0.09918727    -0.32400
H1505       H  0.09924075  0.93501703  0.10997559     0.29000
H1506       H  0.15018120  0.55202625  0.03494357     0.29000
H1507       H  0.06827704  0.01432940  0.06024558     0.19600
H1508       H  0.17249950  0.94994181  0.07124841     0.19600
C1509       C  0.37416627  0.96102380  0.07534214    -0.06300
C1510       C  0.35474368  0.93680375  0.06537516    -0.17400
C1511       C  0.32678848  0.94695681  0.05538133     0.10900
C1512       C  0.31877048  0.98272192  0.05415990    -0.06200
C1513       C  0.33707480  0.00712661  0.06469084    -0.17400
C1514       C  0.36413013  0.99646868  0.07574033     0.11000
S1515       S  0.30405025  0.91325709  0.04306738    -0.32400
S1516       S  0.39290530  0.52840793  0.08585538    -0.32400
H1517       H  0.39130334  0.51474364  0.10452529     0.29000
H1518       H  0.27323829  0.92986746  0.04416822     0.29000
H1519       H  0.36188862  0.90964007  0.06476121     0.19600
H1520       H  0.33641573  0.53152582  0.06167807     0.19600
C1521       C  0.14881580  0.51197682  0.96023397    -0.06300
C1522       C  0.12379726  0.53329038  0.96799735    -0.17400
C1523       C  0.09565359  0.54209311  0.95751046     0.10900
C1524       C  0.09265025  0.53095142  0.93838100    -0.06200
C1525       C  0.11696613  0.50873684  0.93070118    -0.17400
C1526       C  0.14433073  0.49818260  0.94162398     0.11000
S1527       S  0.06475762  0.56865498  0.96912114    -0.32400
S1528       S  0.16734072  0.96676120  0.93000123    -0.32400
H1529       H  0.17927790  0.95181158  0.94699039     0.29000
H1530       H  0.03827311  0.55756266  0.95774269     0.29000
H1531       H  0.12624533  0.54325663  0.98244492     0.19600
H1532       H  0.11498362  0.50015522  0.91597158     0.19600
C1533       C  0.32529480  0.52264667  0.96010829    -0.06300
C1534       C  0.33372055  0.50197267  0.94419857    -0.17400
C1535       C  0.36216441  0.50895549  0.93325795     0.10900
C1536       C  0.38308944  0.53700489  0.93836559    -0.06200
C1537       C  0.37436260  0.55775706  0.95416402    -0.17400
C1538       C  0.34588048  0.55109732  0.96494600     0.11000
S1539       S  0.36910071  0.48278504  0.91220832    -0.32400
S1540       S  0.33680161  0.58038226  0.98453475    -0.32400
H1541       H  0.30239499  0.57672596  0.98382888     0.29000
H1542       H  0.40340671  0.48119588  0.91427592     0.29000
H1543       H  0.31818883  0.48005928  0.94038586     0.19600
H1544       H  0.38929554  0.58029310  0.95771494     0.19600
C1545       C  0.16660102  0.51280477  0.67739094    -0.06300
C1546       C  0.18575493  0.51162591  0.69407651    -0.17400
C1547       C  0.18077028  0.48578540  0.70794421     0.10900
C1548       C  0.15768976  0.96344041  0.70742401    -0.06200
C1549       C  0.13948736  0.96368982  0.69040270    -0.17400
C1550       C  0.14506332  0.98918347  0.67634411     0.11000
S1551       S  0.20785264  0.48310377  0.72834255    -0.32400
S1552       S  0.12051641  0.98940799  0.65485536    -0.32400
H1553       H  0.09664498  0.45958090  0.65821824     0.29000
H1554       H  0.22626857  0.01769489  0.72737691     0.29000
H1555       H  0.20537664  0.53040256  0.69598266     0.19600
H1556       H  0.12096215  0.94377870  0.68817880     0.19600
C1557       C  0.16143636  0.78289950  0.70550890    -0.06300
C1558       C  0.14322615  0.78354458  0.68848168    -0.17400
C1559       C  0.14627262  0.75676600  0.67492606     0.10900
C1560       C  0.16784530  0.72854593  0.67848528    -0.06200
C1561       C  0.18667915  0.72849537  0.69532590    -0.17400
C1562       C  0.18414137  0.75557173  0.70864710     0.11000
S1563       S  0.12168093  0.75986533  0.65354506    -0.32400
S1564       S  0.21065033  0.75389428  0.72929096    -0.32400
H1565       H  0.21227191  0.79024250  0.73214192     0.29000
H1566       H  0.11800740  0.72365709  0.65081258     0.29000
H1567       H  0.12585890  0.80458860  0.68599879     0.19600
H1568       H  0.20441218  0.70785614  0.69788858     0.19600
C1569       C  0.34029531  0.96423028  0.70736862    -0.06300
C1570       C  0.30939688  0.96385506  0.69852574    -0.17400
C1571       C  0.29949451  0.48685232  0.68308751     0.10900
C1572       C  0.32166230  0.51397840  0.67820773    -0.06200
C1573       C  0.35338645  0.01775497  0.69007432    -0.17400
C1574       C  0.36262778  0.99148632  0.70300494     0.11000
S1575       S  0.25865605  0.48323496  0.67326807    -0.32400
S1576       S  0.40328877  0.99393862  0.71320627    -0.32400
H1577       H  0.40745775  0.95776368  0.71582399     0.29000
H1578       H  0.25241472  0.51934755  0.67297143     0.29000
H1579       H  0.29200448  0.94332468  0.70201806     0.19600
H1580       H  0.37066411  0.03840883  0.68663368     0.19600
C1581       C  0.31929069  0.73105999  0.67955395    -0.06300
C1582       C  0.29726562  0.75882292  0.68274112    -0.17400
C1583       C  0.30317678  0.78407627  0.69684114     0.10900
C1584       C  0.33254086  0.78271032  0.70763928    -0.06200
C1585       C  0.35468174  0.75499812  0.70440211    -0.17400
C1586       C  0.34834551  0.72920250  0.69057452     0.11000
S1587       S  0.27182353  0.81679920  0.70070958    -0.32400
S1588       S  0.37852928  0.69501493  0.68747944    -0.32400
H1589       H  0.37238350  0.68897475  0.66797500     0.29000
H1590       H  0.27714884  0.82032922  0.72048401     0.29000
H1591       H  0.27462127  0.76019967  0.67461268     0.19600
H1592       H  0.37723769  0.75366766  0.71260771     0.19600
C1593       C  0.17620913  0.98664998  0.32544813    -0.06300
C1594       C  0.15006156  0.00931627  0.32983211    -0.17400
C1595       C  0.13421311  0.53672113  0.31839693     0.10900
C1596       C  0.14607873  0.53711768  0.29935370    -0.06200
C1597       C  0.16974158  0.51244211  0.29373758    -0.17400
C1598       C  0.19196799  0.98946679  0.30737542     0.11000
S1599       S  0.10390693  0.56741210  0.32715913    -0.32400
S1600       S  0.22816175  0.96480915  0.30078356    -0.32400
H1601       H  0.24295996  0.96723956  0.31888838     0.29000
H1602       H  0.08861591  0.57385034  0.30950016     0.29000
H1603       H  0.13799147  0.00752702  0.34365551     0.19600
H1604       H  0.17948262  0.51319106  0.27928000     0.19600
C1605       C  0.14961649  0.71849173  0.29599314    -0.06300
C1606       C  0.17703390  0.73915131  0.29152612    -0.17400
C1607       C  0.18801490  0.76499463  0.30410758     0.10900
C1608       C  0.17018918  0.77155472  0.32118821    -0.06200
C1609       C  0.14308823  0.75042925  0.32575613    -0.17400
C1610       C  0.13258892  0.72400205  0.31337996     0.11000
S1611       S  0.22632523  0.78623143  0.29820714    -0.32400
S1612       S  0.09779837  0.69791676  0.32079170    -0.32400
H1613       H  0.08676758  0.68895607  0.30240740     0.29000
H1614       H  0.23864580  0.78536409  0.31698356     0.29000
H1615       H  0.19062018  0.73422377  0.27841624     0.19600
H1616       H  0.12997030  0.75458478  0.33910564     0.19600
C1617       C  0.34317953  0.53512883  0.30230398    -0.06300
C1618       C  0.36677302  0.50962342  0.30693858    -0.17400
C1619       C  0.36217033  0.98492314  0.32174585     0.10900
C1620       C  0.33104167  0.98341956  0.33069955    -0.06200
C1621       C  0.30715430  0.00868059  0.32622145    -0.17400
C1622       C  0.31253331  0.53512370  0.31191361     0.11000
S1623       S  0.39449060  0.95366750  0.32639671    -0.32400
S1624       S  0.27966920  0.56504631  0.30610613    -0.32400
H1625       H  0.28688926  0.56711184  0.28645059     0.29000
H1626       H  0.38385788  0.94339451  0.34469964     0.29000
H1627       H  0.39022362  0.50937402  0.29949091     0.19600
H1628       H  0.28312810  0.00751371  0.33298497     0.19600
C1629       C  0.32735149  0.76631624  0.32601967    -0.06300
C1630       C  0.30396951  0.74064512  0.32150746    -0.17400
C1631       C  0.31026188  0.71546642  0.30750628     0.10900
C1632       C  0.34100443  0.71533972  0.29798491    -0.06200
C1633       C  0.36442786  0.74100430  0.30247722    -0.17400
C1634       C  0.35800249  0.76633624  0.31648806     0.11000
S1635       S  0.27810777  0.68421404  0.30256609    -0.32400
S1636       S  0.39021845  0.79706192  0.32202939    -0.32400
H1637       H  0.38140569  0.80207962  0.34130853     0.29000
H1638       H  0.28652809  0.67857015  0.28328418     0.29000
H1639       H  0.28031667  0.74054163  0.32874051     0.19600
H1640       H  0.38817725  0.74068881  0.29535847     0.19600
C1641       C  0.08609351  0.73115664  0.54463773    -0.06300
C1642       C  0.10643170  0.70511411  0.53699059    -0.17400
C1643       C  0.13441486  0.69340542  0.54664584     0.10900
C1644       C  0.14186634  0.70738673  0.56500729    -0.06200
C1645       C  0.12155501  0.73392332  0.57251123    -0.17400
C1646       C  0.09416286  0.74633897  0.56240406     0.11000
S1647       S  0.16037685  0.66172673  0.53454520    -0.32400
S1648       S  0.07081601  0.78170245  0.57283353    -0.32400
H1649       H  0.05898427  0.79553186  0.55554178     0.29000
H1650       H  0.13921526  0.65412208  0.51921376     0.29000
H1651       H  0.10037199  0.69426511  0.52312670     0.19600
H1652       H  0.12700454  0.74529076  0.58632416     0.19600
C1653       C  0.41005549  0.72301400  0.54783710    -0.06300
C1654       C  0.40303487  0.74152247  0.56468882    -0.17400
C1655       C  0.37576142  0.73290058  0.57615718     0.10900
C1656       C  0.35428074  0.70563288  0.57037259    -0.06200
C1657       C  0.36202819  0.68710088  0.55349836    -0.17400
C1658       C  0.38957932  0.69504176  0.54245295     0.11000
S1659       S  0.37058436  0.75761742  0.59780667    -0.32400
S1660       S  0.39664834  0.66905523  0.52123838    -0.32400
H1661       H  0.43117466  0.67161992  0.52153976     0.29000
H1662       H  0.36916704  0.72746243  0.60932516     0.29000
H1663       H  0.41877994  0.76307654  0.56881907     0.19600
H1664       H  0.34647610  0.66592741  0.54863723     0.19600
C1665       C  0.12939501  0.79215177  0.42682707    -0.06300
C1666       C  0.12430338  0.75733962  0.43233561    -0.17400
C1667       C  0.09771237  0.74831972  0.44414091     0.10900
C1668       C  0.07573324  0.77465515  0.45036846    -0.06200
C1669       C  0.07948358  0.80890769  0.44368477    -0.17400
C1670       C  0.10599883  0.81792249  0.43195033     0.11000
S1671       S  0.09462015  0.70349217  0.45198121    -0.32400
S1672       S  0.10921078  0.86300667  0.42454470    -0.32400
H1673       H  0.12624615  0.85618952  0.40737982     0.29000
H1674       H  0.06053229  0.70354962  0.45543958     0.29000
H1675       H  0.14224936  0.73753053  0.42847798     0.19600
H1676       H  0.06237427  0.82901922  0.44829901     0.19600
C1677       C  0.40689299  0.76696193  0.45292107    -0.06300
C1678       C  0.40465331  0.79973481  0.44404170    -0.17400
C1679       C  0.37753759  0.80840976  0.43278099     0.10900
C1680       C  0.35164726  0.78414729  0.43071761    -0.06200
C1681       C  0.35464941  0.75069828  0.43866414    -0.17400
C1682       C  0.38211203  0.74173376  0.44966713     0.11000
S1683       S  0.37724928  0.85093309  0.42162618    -0.32400
S1684       S  0.38319208  0.69852626  0.46001213    -0.32400
H1685       H  0.41759539  0.69634908  0.46177837     0.29000
H1686       H  0.35733347  0.84147635  0.40604646     0.29000
H1687       H  0.42378026  0.81901001  0.44633609     0.19600
H1688       H  0.33480459  0.73202413  0.43703719     0.19600
C1689       C  0.07921213  0.52536367  0.55038322    -0.06300
C1690       C  0.08108143  0.55715934  0.56025333    -0.17400
C1691       C  0.10845514  0.56516763  0.57145493     0.10900
C1692       C  0.13473467  0.54099624  0.57269741    -0.06200
C1693       C  0.13187044  0.50825182  0.56389546    -0.17400
C1694       C  0.10432738  0.50014066  0.55276849     0.11000
S1695       S  0.10900350  0.60723438  0.58315765    -0.32400
S1696       S  0.10637468  0.95791573  0.53938039    -0.32400
H1697       H  0.07183042  0.95573034  0.53905854     0.29000
H1698       H  0.12955064  0.59691518  0.59830850     0.29000
H1699       H  0.06169766  0.57641629  0.55857144     0.19600
H1700       H  0.15207379  0.48976689  0.56469445     0.19600
C1701       C  0.41228546  0.52821411  0.54891669    -0.06300
C1702       C  0.39039320  0.50095660  0.55322961    -0.17400
C1703       C  0.36263017  0.50677556  0.56469096     0.10900
C1704       C  0.35652634  0.54061711  0.57186403    -0.06200
C1705       C  0.37945997  0.56731481  0.56837910    -0.17400
C1706       C  0.40720072  0.56164760  0.55698816     0.11000
S1707       S  0.33396716  0.47135212  0.56765949    -0.32400
S1708       S  0.43257177  0.59933517  0.55184631    -0.32400
H1709       H  0.46137849  0.58215803  0.54613048     0.29000
H1710       H  0.32941461  0.47718222  0.58734527     0.29000
H1711       H  0.39425254  0.47536508  0.54692873     0.19600
H1712       H  0.37470752  0.59349154  0.57369605     0.19600
C1713       C  0.14583302  0.96546661  0.43757795    -0.06300
C1714       C  0.12150932  0.98477539  0.42797826    -0.17400
C1715       C  0.09422508  0.99871108  0.43788407     0.10900
C1716       C  0.09012984  0.99141961  0.45765942    -0.06200
C1717       C  0.11525565  0.97321289  0.46718193    -0.17400
C1718       C  0.14349760  0.96189268  0.45766846     0.11000
S1719       S  0.06589246  0.02545690  0.42448208    -0.32400
S1720       S  0.17633569  0.94505872  0.47236078    -0.32400
H1721       H  0.20180387  0.95779204  0.46057759     0.29000
H1722       H  0.05397897  0.04466360  0.44020586     0.29000
H1723       H  0.12346601  0.98853842  0.41264819     0.19600
H1724       H  0.11313551  0.96819774  0.48240439     0.19600
C1725       C  0.41496083  0.96451658  0.45603452    -0.06300
C1726       C  0.40576633  0.98188340  0.43921755    -0.17400
C1727       C  0.37777210  0.97163653  0.42893124     0.10900
C1728       C  0.35765803  0.94419041  0.43600804    -0.06200
C1729       C  0.36805778  0.92615267  0.45248987    -0.17400
C1730       C  0.39650401  0.93550146  0.46227729     0.11000
S1731       S  0.36928785  0.99486010  0.40710961    -0.32400
S1732       S  0.40718107  0.91008117  0.48315140    -0.32400
H1733       H  0.44127388  0.91616752  0.48218654     0.29000
H1734       H  0.36593954  0.96408366  0.39623775     0.29000
H1735       H  0.42012965  0.00400737  0.43430412     0.19600
H1736       H  0.35395101  0.90461229  0.45818273     0.19600
N1737       N  0.94525534  0.50165761  0.50168345    -0.36800
N1738       N  0.49695831  0.50058867  0.47075034    -0.57300
N1739       N  0.54729625  0.00429240  0.50206364    -0.36700
N1740       N  0.49746377  0.00747468  0.53114999    -0.57300
C1741       C  0.92700089  0.50205264  0.48555282     0.26800
C1742       C  0.93019663  0.01119607  0.51762732     0.26800
C1743       C  0.56315294  0.51731064  0.48401097     0.26800
C1744       C  0.56437011  0.01763863  0.51694354     0.26800
C1745       C  0.96986099  0.48363936  0.46249180     0.35400
C1746       C  0.52433024  0.49001222  0.46139491     0.35500
C1747       C  0.97155400  0.01207608  0.54360536     0.35400
C1748       C  0.52384504  0.00671001  0.54272879     0.35500
C1749       C  0.89584121  0.51496420  0.48956049    -0.22000
C1750       C  0.89893225  0.01725784  0.51039883    -0.22000
C1751       C  0.59204704  0.53503525  0.48819272    -0.22000
C1752       C  0.59295652  0.03329962  0.51029217    -0.22000
C1753       C  0.98162697  0.46509834  0.44686395    -0.23100
C1754       C  0.51597691  0.46813083  0.44635064    -0.23100
C1755       C  0.98119763  0.00828695  0.56248854    -0.23100
C1756       C  0.51401435  0.00284367  0.56162752    -0.23100
C1757       C  0.93651499  0.48682041  0.46799262    -0.18400
C1758       C  0.93883175  0.01381888  0.53718727    -0.18400
C1759       C  0.55615641  0.01327490  0.53645602    -0.18400
C1760       C  0.55643549  0.50071229  0.46637758    -0.18400
H1761       H  0.87545127  0.51764303  0.47973569     0.14500
H1762       H  0.87733456  0.02595864  0.51817881     0.14500
H1763       H  0.61153361  0.54198727  0.47829931     0.14500
H1764       H  0.61206327  0.04555806  0.51870341     0.14500
H1765       H  0.96745425  0.44997026  0.43672976     0.12800
H1766       H  0.53246297  0.45555466  0.43627401     0.12800
H1767       H  0.96551302  0.00462332  0.57487930     0.12800
H1768       H  0.52948206  0.00229914  0.57420219     0.12800
H1769       H  0.96772093  0.48901275  0.50326048     0.26000
H1770       H  0.52778218  0.98680458  0.50312847     0.26000
N1771       N  0.54510782  0.24588510  0.49871186    -0.36800
N1772       N  0.99521016  0.23882341  0.53006281    -0.57300
N1773       N  0.94301167  0.25109719  0.50233789    -0.36700
N1774       N  0.99033598  0.26626308  0.47257977    -0.57300
C1775       C  0.56465919  0.24701530  0.51433209     0.26800
C1776       C  0.56296049  0.25808425  0.48375577     0.26800
C1777       C  0.92575327  0.25006457  0.51889022     0.26800
C1778       C  0.92302995  0.26480667  0.48882209     0.26800
C1779       C  0.52414724  0.22682506  0.53863532     0.35400
C1780       C  0.96937557  0.22594395  0.54002005     0.35500
C1781       C  0.51922129  0.25720784  0.45886678     0.35400
C1782       C  0.96289323  0.26543603  0.46176556     0.35500
C1783       C  0.59535857  0.25987858  0.50922965    -0.22000
C1784       C  0.59428975  0.26689974  0.48995327    -0.22000
C1785       C  0.89442705  0.26347804  0.51590668    -0.22000
C1786       C  0.89272820  0.27285175  0.49692671    -0.22000
C1787       C  0.51531077  0.20869186  0.55503443    -0.23100
C1788       C  0.98039611  0.20557377  0.55511312    -0.23100
C1789       C  0.50832473  0.25659059  0.44009155    -0.23100
C1790       C  0.97119344  0.26484310  0.44250497    -0.23100
C1791       C  0.55672590  0.23339026  0.53260774    -0.18400
C1792       C  0.55240609  0.25977698  0.46447960    -0.18400
C1793       C  0.93051629  0.26733327  0.46907446    -0.18400
C1794       C  0.93604362  0.23306093  0.53583010    -0.18400
H1795       H  0.61654159  0.26323347  0.51840216     0.14500
H1796       H  0.61450013  0.27685623  0.48142363     0.14500
H1797       H  0.87450839  0.26520491  0.52619997     0.14500
H1798       H  0.87129770  0.28339014  0.48978189     0.14500
H1799       H  0.53148408  0.19670636  0.56542045     0.12800
H1800       H  0.96564069  0.19183357  0.56560982     0.12800
H1801       H  0.52318398  0.25623043  0.42720333     0.12800
H1802       H  0.95466462  0.26446165  0.43039436     0.12800
H1803       H  0.52245626  0.23336034  0.49784944     0.26000
H1804       H  0.96521277  0.23830809  0.49981845     0.26000
C1805       C  0.82122398  0.43928798  0.42671826     0.42300
N1806       N  0.78047708  0.43326483  0.40732071     0.01200
C1807       C  0.67878586  0.28841641  0.40108415    -0.06700
H1808       H  0.81131792  0.26523927  0.39551775     0.06700
C1809       C  0.80526643  0.33058441  0.33387430    -0.07000
Co1810     Co  0.74111697  0.36943046  0.41681732     0.74200
N1811       N  0.77748515  0.30744079  0.40203315    -0.26200
Co1812     Co  0.74354945  0.31059426  0.37973155     0.74100
C1813       C  0.81705142  0.29569266  0.33917363     0.42400
N1814       N  0.78460008  0.41756655  0.35029358     0.00800
N1815       N  0.78108815  0.31322767  0.35969029     0.00900
N1816       N  0.67838303  0.32864151  0.42484542    -0.47100
H1817       H  0.80534923  0.39027031  0.44369233     0.06700
N1818       N  0.77617464  0.33021777  0.41616429     0.01200
N1819       N  0.71021966  0.31503035  0.35746757     0.00900
C1820       C  0.67812444  0.29934957  0.33472267     0.42600
N1821       N  0.78393073  0.43973644  0.36475684    -0.25700
C1822       C  0.68098589  0.41224715  0.42854855    -0.06600
N1823       N  0.80620987  0.45339599  0.41122893    -0.46800
N1824       N  0.69054544  0.28965365  0.35175023    -0.47000
C1825       C  0.66742329  0.44635429  0.42410911     0.42300
N1826       N  0.70452749  0.33214731  0.41372900     0.01200
N1827       N  0.71264547  0.44232382  0.36267661    -0.25700
N1828       N  0.77768366  0.40688845  0.41932760    -0.26200
N1829       N  0.71335212  0.41997733  0.34825332     0.00800
H1830       H  0.69047402  0.49313450  0.36605207     0.06700
H1831       H  0.69078208  0.34852007  0.31720966     0.06800
N1832       N  0.70537179  0.30919863  0.39967698    -0.26200
N1833       N  0.78295725  0.33916417  0.34729354    -0.25800
N1834       N  0.70825502  0.43608176  0.40539784     0.01200
C1835       C  0.81782128  0.29837743  0.42281626     0.42600
C1836       C  0.80605093  0.46492818  0.36143730    -0.07100
N1837       N  0.71165091  0.34124399  0.34520376    -0.25800
H1838       H  0.80877984  0.34433685  0.32050100     0.06700
N1839       N  0.79984103  0.32580931  0.42883526    -0.47100
H1840       H  0.80778982  0.48904073  0.36946310     0.06700
C1841       C  0.68121777  0.46128892  0.33875779     0.42400
C1842       C  0.80183215  0.40869917  0.43217680    -0.06600
Co1843     Co  0.74633328  0.43871559  0.38511667     0.73800
N1844       N  0.80587550  0.42694965  0.33684496    -0.46800
C1845       C  0.66079549  0.30193724  0.41765185     0.42700
N1846       N  0.68512095  0.45967825  0.40932952    -0.54000
Co1847     Co  0.74813399  0.37950607  0.34742901     0.73900
C1848       C  0.69174165  0.33396070  0.33046266    -0.07100
C1849       C  0.80316097  0.28586632  0.40500863    -0.06700
N1850       N  0.70643891  0.40861603  0.41672997    -0.26200
N1851       N  0.80075777  0.28691011  0.35529598    -0.46900
H1852       H  0.67242975  0.26740169  0.39142785     0.06700
C1853       C  0.69262626  0.46895492  0.35811078    -0.07100
Cl1854     Cl  0.74477043  0.37461352  0.38222420    -0.50100
C1855       C  0.82058085  0.45672194  0.34277528     0.42500
H1856       H  0.67377533  0.39361192  0.43938113     0.06700
N1857       N  0.69511728  0.43049421  0.33365946    -0.46800
C1858       C  0.82549061  0.04669588  0.58203066     0.42300
N1859       N  0.78319712  0.05624655  0.59956756     0.01200
C1860       C  0.68210623  0.20169054  0.59547414    -0.06700
H1861       H  0.81238679  0.22664822  0.60671785     0.06700
C1862       C  0.79928691  0.16784146  0.67029379    -0.07000
Co1863     Co  0.74683419  0.11928626  0.58623524     0.74200
N1864       N  0.78083486  0.18291194  0.60069862    -0.26200
Co1865     Co  0.74352596  0.18299025  0.62142334     0.74100
C1866       C  0.81140135  0.20245645  0.66472498     0.42400
N1867       N  0.78023104  0.07908869  0.65564099     0.00800
N1868       N  0.77825245  0.18307791  0.64322846     0.00900
N1869       N  0.68714022  0.15929359  0.57327596    -0.47100
H1870       H  0.81480090  0.09417719  0.56300595     0.06700
N1871       N  0.78194205  0.15806993  0.58767857     0.01200
N1872       N  0.70747015  0.18155741  0.64273253     0.00900
C1873       C  0.67651258  0.20087056  0.66555555     0.42600
N1874       N  0.78102090  0.05530890  0.64196955    -0.25700
C1875       C  0.68734569  0.07578807  0.57321621    -0.06600
N1876       N  0.80863693  0.03473155  0.59741092    -0.46800
N1877       N  0.68942572  0.20865395  0.64821921    -0.47000
C1878       C  0.66982613  0.04541465  0.58021359     0.42300
N1879       N  0.71038163  0.15690049  0.58629848     0.01200
N1880       N  0.70952613  0.05415869  0.64119898    -0.25700
N1881       N  0.78296737  0.08144611  0.58671832    -0.26200
N1882       N  0.70882269  0.07795726  0.65485159     0.00800
H1883       H  0.68659270  0.00385528  0.63841319     0.06700
H1884       H  0.68770443  0.15277016  0.68400138     0.06800
N1885       N  0.70826439  0.18129699  0.59955534    -0.26200
N1886       N  0.77889527  0.15800579  0.65620504    -0.25800
N1887       N  0.71071073  0.05533040  0.59860770     0.01200
C1888       C  0.82580788  0.18790890  0.58229233     0.42600
C1889       C  0.80261186  0.03041975  0.64679787    -0.07100
N1890       N  0.70763835  0.15631276  0.65561965    -0.25800
H1891       H  0.80123882  0.15507397  0.68405229     0.06700
N1892       N  0.80802956  0.16020357  0.57649457    -0.47100
H1893       H  0.80511104  0.00547080  0.63963704     0.06700
C1894       C  0.67383419  0.03898972  0.66403867     0.42400
C1895       C  0.80868039  0.07754667  0.57501076    -0.06600
Co1896     Co  0.74608269  0.05440973  0.62031029     0.73800
N1897       N  0.79973694  0.07098216  0.67012905    -0.46800
C1898       C  0.66811841  0.18680660  0.57782071     0.42700
N1899       N  0.68552110  0.03373780  0.59601709    -0.46800
Co1900     Co  0.74392921  0.11777833  0.65584437     0.73900
C1901       C  0.68825030  0.16575643  0.67025348    -0.07100
C1902       C  0.80730783  0.20361446  0.59830927    -0.06700
N1903       N  0.71189369  0.08021569  0.58557596    -0.26200
N1904       N  0.79683585  0.21009932  0.64791447    -0.46900
H1905       H  0.67429352  0.22423946  0.60365868     0.06700
C1906       C  0.68799074  0.02888644  0.64557270    -0.07100
Cl1907     Cl  0.74502358  0.11860984  0.62101189    -0.50100
C1908       C  0.81478465  0.04048466  0.66565849     0.42500
H1909       H  0.68201146  0.09220532  0.56106127     0.06700
N1910       N  0.68810546  0.06972507  0.66877688    -0.46800
N1911       N  0.68756832  0.50194742  0.00661027    -0.36800
N1912       N  0.73784126  0.00230944  0.97381342    -0.57300
N1913       N  0.78681322  0.50277358  0.00498343    -0.36700
N1914       N  0.73744941  0.49588334  0.03509166    -0.57300
C1915       C  0.67189509  0.98732178  0.98828055     0.26800
C1916       C  0.67039188  0.48927376  0.02173920     0.26800
C1917       C  0.80608102  0.00220274  0.98824816     0.26800
C1918       C  0.80567016  0.49119482  0.01961296     0.26800
C1919       C  0.71023404  0.01037002  0.96390657     0.35400
C1920       C  0.76374870  0.01481042  0.96365950     0.35500
C1921       C  0.71142908  0.49951196  0.04698004     0.35400
C1922       C  0.76462302  0.49774531  0.04600423     0.35500
C1923       C  0.64411835  0.96834022  0.99331389    -0.22000
C1924       C  0.64177459  0.47342721  0.01536259    -0.22000
C1925       C  0.83735498  0.99143830  0.99348488    -0.22000
C1926       C  0.83659918  0.48207444  0.01267988    -0.22000
C1927       C  0.71868917  0.02759750  0.94714833    -0.23100
C1928       C  0.75266029  0.03006683  0.94689724    -0.23100
C1929       C  0.72210458  0.50431453  0.06560567    -0.23100
C1930       C  0.75593158  0.50259429  0.06502495    -0.23100
C1931       C  0.67788001  0.00131834  0.96992171    -0.18400
C1932       C  0.67856049  0.49440751  0.04122237    -0.18400
C1933       C  0.79661051  0.49061748  0.03922724    -0.18400
C1934       C  0.79712401  0.01229762  0.96950909    -0.18400
H1935       H  0.62541688  0.95829016  0.98379260     0.14500
H1936       H  0.62277921  0.46122856  0.02396020     0.14500
H1937       H  0.85851183  0.98766701  0.98424697     0.14500
H1938       H  0.85755577  0.47283370  0.02075948     0.14500
H1939       H  0.70218809  0.03740623  0.93627518     0.12800
H1940       H  0.76744481  0.04228785  0.93586343     0.12800
H1941       H  0.70717162  0.50732491  0.07835375     0.12800
H1942       H  0.77218916  0.50401965  0.07723209     0.12800
H1943       H  0.70753230  0.51894714  0.00728011     0.26000
H1944       H  0.76410159  0.51504791  0.00618430     0.26000
N1945       N  0.79488254  0.26655554  0.99821731    -0.36800
N1946       N  0.74549041  0.27639986  0.02716152    -0.57300
N1947       N  0.69594972  0.26687330  0.99780040    -0.36700
N1948       N  0.74556728  0.25868417  0.96814412    -0.57300
C1949       C  0.81330391  0.27862211  0.01289931     0.26800
C1950       C  0.81318101  0.26974302  0.98212930     0.26800
C1951       C  0.67736761  0.27968698  0.01230593     0.26800
C1952       C  0.67743544  0.26830433  0.98176002     0.26800
C1953       C  0.77182743  0.27316738  0.03875787     0.35400
C1954       C  0.71854721  0.27489226  0.03846980     0.35500
C1955       C  0.77264450  0.24686728  0.95880442     0.35400
C1956       C  0.71902997  0.24600575  0.95874285     0.35500
C1957       C  0.84340193  0.29027741  0.00598857    -0.22000
C1958       C  0.84338827  0.28448859  0.98656817    -0.22000
C1959       C  0.64679606  0.28962242  0.00531441    -0.22000
C1960       C  0.64681878  0.28231483  0.98608549    -0.22000
C1961       C  0.76155564  0.26972246  0.05760794    -0.23100
C1962       C  0.72772198  0.27125112  0.05743964    -0.23100
C1963       C  0.76331315  0.22734616  0.94302374    -0.23100
C1964       C  0.72927153  0.22681863  0.94297873    -0.23100
C1965       C  0.80484638  0.27600575  0.03251612    -0.18400
C1966       C  0.80546724  0.25431348  0.96434141    -0.18400
C1967       C  0.68585946  0.25279999  0.96405861    -0.18400
C1968       C  0.68603231  0.27948152  0.03192606    -0.18400
H1969       H  0.86372667  0.30065550  0.01418578     0.14500
H1970       H  0.86378483  0.28924439  0.97690549     0.14500
H1971       H  0.62604931  0.29984977  0.01330614     0.14500
H1972       H  0.62618704  0.28585729  0.97653041     0.14500
H1973       H  0.77676944  0.26706916  0.07020238     0.12800
H1974       H  0.71173984  0.27004238  0.06984626     0.12800
H1975       H  0.77933287  0.21469943  0.93271842     0.12800
H1976       H  0.71385316  0.21373249  0.93261480     0.12800
H1977       H  0.77355948  0.25173743  0.99948625     0.26000
H1978       H  0.71789867  0.25318648  0.99924178     0.26000
C1979       C  0.90979656  0.05108888  0.92261788     0.42300
N1980       N  0.93177270  0.08432566  0.90143353     0.01200
C1981       C  0.57160789  0.07180346  0.84835247    -0.06700
H1982       H  0.59822861  0.09727798  0.91788910     0.06700
C1983       C  0.54112943  0.21189498  0.91632321    -0.07000
Co1984     Co  0.99426315  0.05831917  0.88394986     0.74200
N1985       N  0.55202478  0.08699075  0.90408707    -0.26200
Co1986     Co  0.55228238  0.12348180  0.88218877     0.74100
C1987       C  0.57256974  0.19790213  0.92368274     0.42400
N1988       N  0.95431000  0.18530528  0.90277560     0.00800
N1989       N  0.55294271  0.16293587  0.90254926     0.00900
N1990       N  0.53279821  0.03040247  0.85279358    -0.47100
H1991       H  0.95350646  0.01217878  0.92069228     0.06700
N1992       N  0.52949894  0.06236459  0.90613170     0.01200
N1993       N  0.55165922  0.16264533  0.86098047     0.00900
C1994       C  0.56441039  0.20095882  0.83972134     0.42600
N1995       N  0.93239642  0.15997230  0.90108162    -0.25700
C1996       C  0.95684223  0.03244967  0.84870448    -0.06600
N1997       N  0.90553987  0.08026996  0.91236695    -0.46800
N1998       N  0.57438607  0.17044575  0.84784352    -0.47000
C1999       C  0.92870743  0.04325412  0.83753201     0.42300
N2000       N  0.52859941  0.05692753  0.86468070     0.01200
N2001       N  0.93561229  0.16097182  0.85959857    -0.25700
N2002       N  0.95436306  0.05985402  0.90379761    -0.26200
N2003       N  0.95738808  0.18643267  0.86104600     0.00800
H2004       H  0.89306006  0.15405458  0.84146687     0.06700
H2005       H  0.52034558  0.23552916  0.84756789     0.06800
N2006       N  0.55079698  0.08181000  0.86243698    -0.26200
N2007       N  0.53035197  0.18779134  0.90359446    -0.25800
N2008       N  0.93668432  0.08075771  0.85994843     0.01200
C2009       C  0.56609287  0.05154481  0.92752506     0.42600
C2010       C  0.90827057  0.16471346  0.91374845    -0.07100
N2011       N  0.52859464  0.18692714  0.86214547    -0.25800
H2012       H  0.52984176  0.23705991  0.91899934     0.06700
N2013       N  0.53770741  0.03949787  0.91968402    -0.47100
H2014       H  0.88597967  0.14937231  0.91471270     0.06700
C2015       C  0.92722458  0.20153387  0.83731780     0.42400
C2016       C  0.94232991  0.03687565  0.91687114    -0.06600
Co2017     Co  0.93378131  0.12159178  0.88022035     0.73800
N2018       N  0.94499893  0.20897715  0.91572843    -0.46800
C2019       C  0.55959126  0.03727371  0.84204867     0.42700
N2020       N  0.91657084  0.07302332  0.84553164    -0.46800
Co2021     Co  0.99306468  0.18724541  0.88250903     0.73900
C2022       C  0.53424033  0.21155377  0.84912886    -0.07100
C2023       C  0.57556876  0.08253851  0.91709058    -0.06700
N2024       N  0.95978389  0.05680128  0.86222471    -0.26200
N2025       N  0.57795116  0.16788409  0.91423528    -0.46900
H2026       H  0.59290811  0.08637841  0.84361921     0.06700
C2027       C  0.91486149  0.16867337  0.84524158    -0.07100
Cl2028     Cl  0.99379778  0.12273071  0.88198870    -0.50100
C2029       C  0.91656070  0.19667797  0.92355202     0.42500
H2030       H  0.97168230  0.00905944  0.84742226     0.06700
N2031       N  0.95332065  0.21103590  0.84794652    -0.46800
N2032       N  0.64911718  0.37167011  0.72796166    -0.36800
N2033       N  0.63906204  0.31629940  0.75611762    -0.57300
N2034       N  0.61783496  0.36897972  0.78380545    -0.36700
N2035       N  0.63162737  0.42441862  0.75638132    -0.57300
C2036       C  0.66242076  0.34394935  0.71871225     0.26800
C2037       C  0.66037337  0.40088359  0.71921765     0.26800
C2038       C  0.61835586  0.34029700  0.79518697     0.26800
C2039       C  0.61285572  0.39729019  0.79511556     0.26800
C2040       C  0.64157069  0.29680807  0.74002699     0.35400
C2041       C  0.62657485  0.29499927  0.76976301     0.35500
C2042       C  0.63487641  0.44522183  0.74083835     0.35400
C2043       C  0.61624128  0.44375620  0.76994272     0.35500
C2044       C  0.68228668  0.35561833  0.70386737    -0.22000
C2045       C  0.68104726  0.39158425  0.70420331    -0.22000
C2046       C  0.61352424  0.35054583  0.81403356    -0.22000
C2047       C  0.61009538  0.38644425  0.81398992    -0.22000
C2048       C  0.63113109  0.26292572  0.74354958    -0.23100
C2049       C  0.62202934  0.26166024  0.76241791    -0.23100
C2050       C  0.62206086  0.47809475  0.74464469    -0.23100
C2051       C  0.61017611  0.47714886  0.76303628    -0.23100
C2052       C  0.65534132  0.30844965  0.72255160    -0.18400
C2053       C  0.65065031  0.43555165  0.72354684    -0.18400
C2054       C  0.60861106  0.43231279  0.78873514    -0.18400
C2055       C  0.61894263  0.30502375  0.78876845    -0.18400
H2056       H  0.69598911  0.33983701  0.69373264     0.14500
H2057       H  0.69361101  0.40891909  0.69435833     0.14500
H2058       H  0.61167690  0.33380767  0.82647482     0.14500
H2059       H  0.60535624  0.40262890  0.82640850     0.14500
H2060       H  0.63037073  0.24124228  0.73361003     0.12800
H2061       H  0.61268569  0.23883135  0.76978298     0.12800
H2062       H  0.61457569  0.99915814  0.73123525     0.12800
H2063       H  0.59292506  0.99957090  0.76690081     0.12800
H2064       H  0.63022553  0.37053084  0.73801896     0.26000
H2065       H  0.61656788  0.36881573  0.76900561     0.26000
N2066       N  0.86128677  0.42532466  0.75471850    -0.36800
N2067       N  0.86919264  0.37119474  0.78371737    -0.57300
N2068       N  0.85884411  0.31855116  0.75395577    -0.36700
N2069       N  0.84695079  0.37274008  0.72584392    -0.57300
C2070       C  0.86207975  0.44512649  0.77078241     0.26800
C2071       C  0.84953879  0.44590528  0.74049870     0.26800
C2072       C  0.85936505  0.29812885  0.76978171     0.26800
C2073       C  0.84584668  0.29911281  0.73960758     0.26800
C2074       C  0.87933609  0.39915859  0.79401727     0.35400
C2075       C  0.87864647  0.34237351  0.79351955     0.35500
C2076       C  0.84839115  0.40124987  0.71447703     0.35400
C2077       C  0.84651367  0.34464641  0.71411273     0.35500
C2078       C  0.85110897  0.47862317  0.76668538    -0.22000
C2079       C  0.84290225  0.47903377  0.74763441    -0.22000
C2080       C  0.84689463  0.26537947  0.76543031    -0.22000
C2081       C  0.83810673  0.26608147  0.74644603    -0.22000
C2082       C  0.89427919  0.38806590  0.81074538    -0.23100
C2083       C  0.89387898  0.35210028  0.81042272    -0.23100
C2084       C  0.84881303  0.39121426  0.69540317    -0.23100
C2085       C  0.84758088  0.35533438  0.69517628    -0.23100
C2086       C  0.87480586  0.43458746  0.78868180    -0.18400
C2087       C  0.84667508  0.43622775  0.72101603    -0.18400
C2088       C  0.84269980  0.30965783  0.72025552    -0.18400
C2089       C  0.87316672  0.30737925  0.78763404    -0.18400
H2090       H  0.85196498  0.99955316  0.77646665     0.14500
H2091       H  0.83649021  0.00020880  0.73989765     0.14500
H2092       H  0.84455988  0.24318848  0.77493924     0.14500
H2093       H  0.82772624  0.24446859  0.73851295     0.14500
H2094       H  0.90457280  0.40419667  0.82195176     0.12800
H2095       H  0.90376883  0.33506650  0.82135822     0.12800
H2096       H  0.84947573  0.40800746  0.68294351     0.12800
H2097       H  0.84708454  0.33900720  0.68252716     0.12800
H2098       H  0.87178586  0.40116493  0.75309208     0.26000
H2099       H  0.87031660  0.34222402  0.75256006     0.26000
N2100       N  0.60020480  0.12323405  0.22437586    -0.36800
N2101       N  0.61840534  0.17852235  0.25039224    -0.57300
N2102       N  0.63271743  0.12665805  0.27977445    -0.36700
N2103       N  0.61773382  0.07106931  0.25292129    -0.57300
C2104       C  0.60177161  0.15062209  0.21214477     0.26800
C2105       C  0.60028317  0.09377183  0.21370181     0.26800
C2106       C  0.64537100  0.15582874  0.28782549     0.26800
C2107       C  0.64595484  0.09889259  0.28898656     0.26800
C2108       C  0.60484284  0.19796216  0.23634079     0.35400
C2109       C  0.62130651  0.19981911  0.26568567     0.35500
C2110       C  0.60237150  0.05027556  0.24011776     0.35400
C2111       C  0.62123989  0.05198591  0.26907399     0.35500
C2112       C  0.60278804  0.13842760  0.19346961    -0.22000
C2113       C  0.60183364  0.10251206  0.19444641    -0.22000
C2114       C  0.66652503  0.14656831  0.30251152    -0.22000
C2115       C  0.66700146  0.11061869  0.30319739    -0.22000
C2116       C  0.59913425  0.23175813  0.24272558    -0.23100
C2117       C  0.60968032  0.23296225  0.26133433    -0.23100
C2118       C  0.59608380  0.01783418  0.24817210    -0.23100
C2119       C  0.60824270  0.01885708  0.26650031    -0.23100
C2120       C  0.60005255  0.18627789  0.21740332    -0.18400
C2121       C  0.59612724  0.05945692  0.22086488    -0.18400
C2122       C  0.63798169  0.06338874  0.28564029    -0.18400
C2123       C  0.63687427  0.19055874  0.28295464    -0.18400
H2124       H  0.60362122  0.15381365  0.18048075     0.14500
H2125       H  0.60172927  0.08485275  0.18234089     0.14500
H2126       H  0.68007445  0.16391543  0.31184237     0.14500
H2127       H  0.68097544  0.09493762  0.31318808     0.14500
H2128       H  0.58895510  0.25342799  0.23472475     0.12800
H2129       H  0.60928347  0.25574743  0.27052391     0.12800
H2130       H  0.58485691  0.50053330  0.24028349     0.12800
H2131       H  0.60576398  0.50237648  0.27601386     0.12800
H2132       H  0.59509067  0.12454821  0.23892552     0.26000
H2133       H  0.61348930  0.12591592  0.27003105     0.26000
N2134       N  0.86714777  0.06959062  0.25374076    -0.36800
N2135       N  0.88159068  0.12066378  0.22429461    -0.57300
N2136       N  0.86916592  0.17601289  0.25174270    -0.36700
N2137       N  0.85217642  0.12474724  0.28062172    -0.57300
C2138       C  0.86737087  0.04924128  0.23792900     0.26800
C2139       C  0.85176605  0.05138116  0.26772431     0.26800
C2140       C  0.86995549  0.19413923  0.23514860     0.26800
C2141       C  0.85395580  0.19645911  0.26487126     0.26800
C2142       C  0.89291232  0.09158770  0.21553781     0.35400
C2143       C  0.89407715  0.14799846  0.21449238     0.35500
C2144       C  0.85257793  0.09727932  0.29274848     0.35400
C2145       C  0.85313400  0.15379393  0.29157003     0.35500
C2146       C  0.85199276  0.01770677  0.24187516    -0.22000
C2147       C  0.84202586  0.01910166  0.26070236    -0.22000
C2148       C  0.85529377  0.22656176  0.23776844    -0.22000
C2149       C  0.84509692  0.22799797  0.25654719    -0.22000
C2150       C  0.91259721  0.10040090  0.20003455    -0.23100
C2151       C  0.91342172  0.13629880  0.19940312    -0.23100
C2152       C  0.85385178  0.10890560  0.31151946    -0.23100
C2153       C  0.85409093  0.14479992  0.31077263    -0.23100
C2154       C  0.88362461  0.05735564  0.22061756    -0.18400
C2155       C  0.84885758  0.06210405  0.28701462    -0.18400
C2156       C  0.84980317  0.18812080  0.28442382    -0.18400
C2157       C  0.88587038  0.18317004  0.21817148    -0.18400
H2158       H  0.84492100  0.49367033  0.23159892     0.14500
H2159       H  0.83049428  0.49677614  0.26845068     0.14500
H2160       H  0.85254063  0.24716793  0.22727856     0.14500
H2161       H  0.83290434  0.24992981  0.26334725     0.14500
H2162       H  0.92476981  0.08281549  0.19013325     0.12800
H2163       H  0.92629240  0.15196684  0.18888009     0.12800
H2164       H  0.85383055  0.09321368  0.32440269     0.12800
H2165       H  0.85426751  0.16227535  0.32295655     0.12800
H2166       H  0.88054390  0.09244988  0.25557347     0.26000
H2167       H  0.88179725  0.15293902  0.25451403     0.26000
C2168       C  0.90775839  0.44280225  0.08220719     0.42300
N2169       N  0.94989476  0.43488394  0.10000454     0.01200
C2170       C  0.55907687  0.29865699  0.09579352    -0.06700
H2171       H  0.92830733  0.26370926  0.10514358     0.06700
C2172       C  0.93540976  0.32484463  0.16884595    -0.07000
Co2173     Co  0.99076893  0.37497968  0.08624423     0.74200
N2174       N  0.95889341  0.30897201  0.09968365    -0.26200
Co2175     Co  0.99483621  0.31041970  0.12099668     0.74100
C2176       C  0.92561318  0.28926455  0.16408446     0.42400
N2177       N  0.95224330  0.41114429  0.15602579     0.00800
N2178       N  0.95924007  0.30833928  0.14265592     0.00900
N2179       N  0.55370828  0.34235036  0.07430926    -0.47100
H2180       H  0.92256152  0.39731566  0.06236994     0.06700
N2181       N  0.95774382  0.33365667  0.08651288     0.01200
N2182       N  0.53191076  0.31402490  0.14213974     0.00900
C2183       C  0.56542975  0.29434432  0.16333834     0.42600
N2184       N  0.95002353  0.43483094  0.14241544    -0.25700
C2185       C  0.54806456  0.42702353  0.07511006    -0.06600
N2186       N  0.92352905  0.45496164  0.09783519    -0.46800
N2187       N  0.55183902  0.28769017  0.14615535    -0.47000
C2188       C  0.56347990  0.45814031  0.08308029     0.42300
N2189       N  0.02931588  0.33933474  0.08662031     0.01200
N2190       N  0.52495856  0.44113225  0.14330792    -0.25700
N2191       N  0.95222889  0.41045210  0.08676654    -0.26200
N2192       N  0.52706910  0.41696134  0.15671041     0.00800
H2193       H  0.54591286  0.49240060  0.14051596     0.06700
H2194       H  0.55256943  0.33918207  0.18386367     0.06800
N2195       N  0.03095542  0.31440548  0.09963842    -0.26200
N2196       N  0.95710507  0.33380197  0.15533605    -0.25800
N2197       N  0.02171945  0.44109677  0.10005806     0.01200
C2198       C  0.91761636  0.29994497  0.07953433     0.42600
C2199       C  0.92612381  0.45746404  0.14702370    -0.07100
N2200       N  0.53111645  0.33791763  0.15579318    -0.25800
H2201       H  0.93074870  0.33950270  0.18181454     0.06700
N2202       N  0.93332293  0.32937601  0.07431129    -0.47100
H2203       H  0.92172045  0.48207397  0.13984100     0.06700
C2204       C  0.56061301  0.45735948  0.16568612     0.42400
C2205       C  0.92678433  0.41338541  0.07485222    -0.06600
Co2206     Co  0.98563855  0.43855769  0.12117759     0.73800
N2207       N  0.93134587  0.41702656  0.17025222    -0.46800
C2208       C  0.57423149  0.31623395  0.07927327     0.42700
N2209       N  0.54697825  0.46654131  0.09921185    -0.46800
Co2210     Co  0.99047656  0.37468566  0.15599008     0.73900
C2211       C  0.55185712  0.32792669  0.16967070    -0.07100
C2212       C  0.93430339  0.28620774  0.09644124    -0.06700
N2213       N  0.02347556  0.41672100  0.08673495    -0.26200
N2214       N  0.94100172  0.28100063  0.14747127    -0.46900
H2215       H  0.56820270  0.27690732  0.10412861     0.06700
C2216       C  0.54541749  0.46727463  0.14761118    -0.07100
Cl2217     Cl  0.99052624  0.37464848  0.12112659    -0.50100
C2218       C  0.91366939  0.44578327  0.16559352     0.42500
H2219       H  0.55331608  0.41340976  0.06192730     0.06700
N2220       N  0.54764858  0.42596975  0.17055698    -0.46800
C2221       C  0.90098911  0.47061624  0.18000900    -0.06300
C2222       C  0.91898847  0.47536764  0.19691957    -0.17400
C2223       C  0.91727025  0.00524327  0.21023839     0.10900
C2224       C  0.89094278  0.02857086  0.20710511    -0.06200
C2225       C  0.87055315  0.02404324  0.19115365    -0.17400
C2226       C  0.87401196  0.49284609  0.17615064     0.11000
S2227       S  0.94540141  0.00973806  0.22999150    -0.32400
S2228       S  0.84800044  0.48737191  0.15550021    -0.32400
H2229       H  0.85280964  0.45109342  0.15370855     0.29000
H2230       H  0.94500768  0.04648175  0.23041478     0.29000
H2231       H  0.93994127  0.45871298  0.19994382     0.19600
H2232       H  0.85015005  0.04183064  0.18885507     0.19600
C2233       C  0.89518968  0.21025265  0.20399071    -0.06300
C2234       C  0.91983841  0.23389232  0.20914893    -0.17400
C2235       C  0.93021597  0.26014602  0.19661720     0.10900
C2236       C  0.91578294  0.26249084  0.17819996    -0.06200
C2237       C  0.89146992  0.23836342  0.17293164    -0.17400
C2238       C  0.88055025  0.21271655  0.18574537     0.11000
S2239       S  0.96325276  0.28850866  0.20428758    -0.32400
S2240       S  0.84772673  0.18430687  0.17808841    -0.32400
H2241       H  0.83434374  0.17843255  0.19638159     0.29000
H2242       H  0.96156048  0.28043781  0.22390556     0.29000
H2243       H  0.93124156  0.23135612  0.22306871     0.19600
H2244       H  0.88035036  0.24005906  0.15888383     0.19600
C2245       C  0.58528066  0.03186397  0.20727360    -0.06300
C2246       C  0.60749785  0.00524961  0.20213208    -0.17400
C2247       C  0.59957159  0.98074042  0.18798406     0.10900
C2248       C  0.57077087  0.48348286  0.17999456    -0.06200
C2249       C  0.54836467  0.50997679  0.18498841    -0.17400
C2250       C  0.55408123  0.03321590  0.19840443     0.11000
S2251       S  0.62989805  0.94802168  0.18198071    -0.32400
S2252       S  0.52586678  0.56862482  0.20361055    -0.32400
H2253       H  0.53274862  0.06941066  0.22374704     0.29000
H2254       H  0.62319283  0.44601535  0.16329969     0.29000
H2255       H  0.63148896  0.00416263  0.20884307     0.19600
H2256       H  0.52403050  0.51024440  0.17866656     0.19600
C2257       C  0.59260538  0.21270178  0.20239760    -0.06300
C2258       C  0.56109825  0.21284288  0.19430026    -0.17400
C2259       C  0.55158275  0.23894688  0.18145991     0.10900
C2260       C  0.57398269  0.26596340  0.17669521    -0.06200
C2261       C  0.60564371  0.26552734  0.18455483    -0.17400
C2262       C  0.61544155  0.23879700  0.19698925     0.11000
S2263       S  0.51048487  0.23620374  0.17189990    -0.32400
S2264       S  0.65739595  0.23922803  0.20534695    -0.32400
H2265       H  0.66022485  0.20286042  0.20778806     0.29000
H2266       H  0.50453899  0.27234912  0.17213629     0.29000
H2267       H  0.54354796  0.19281138  0.19834839     0.19600
H2268       H  0.62307501  0.28577480  0.18067271     0.19600
C2269       C  0.57215195  0.01225357  0.82730141    -0.06300
C2270       C  0.54899944  0.99025104  0.81842361    -0.17400
C2271       C  0.55833597  0.96519446  0.80481729     0.10900
C2272       C  0.59554603  0.45894900  0.80245990    -0.06200
C2273       C  0.61721218  0.48385308  0.81007589    -0.17400
C2274       C  0.60609698  0.51039307  0.82251649     0.11000
S2275       S  0.52622122  0.93867744  0.79451280    -0.32400
S2276       S  0.63599707  0.53966282  0.83280689    -0.32400
H2277       H  0.62441892  0.02722353  0.85277500     0.29000
H2278       H  0.54673601  0.42543230  0.78029460     0.29000
H2279       H  0.52314500  0.99261027  0.82207492     0.19600
H2280       H  0.64303751  0.48218548  0.80629018     0.19600
C2281       C  0.58153704  0.22334080  0.82554276    -0.06300
C2282       C  0.56132099  0.23992408  0.81209218    -0.17400
C2283       C  0.57277259  0.26691733  0.80051217     0.10900
C2284       C  0.60593743  0.27741366  0.80178408    -0.06200
C2285       C  0.62701168  0.25981207  0.81453825    -0.17400
C2286       C  0.61500323  0.23323491  0.82666974     0.11000
S2287       S  0.54371474  0.28638397  0.78413680    -0.32400
S2288       S  0.64289393  0.21439317  0.84378583    -0.32400
H2289       H  0.62031713  0.21492493  0.85908806     0.29000
H2290       H  0.55692672  0.32026004  0.78427415     0.29000
H2291       H  0.53572834  0.23260552  0.81110949     0.19600
H2292       H  0.65265695  0.26739826  0.81535005     0.19600
C2293       C  0.91329584  0.02061736  0.82295559    -0.06300
C2294       C  0.88171192  0.00696380  0.82622330    -0.17400
C2295       C  0.86686364  0.47603320  0.81704556     0.10900
C2296       C  0.88615725  0.46282344  0.80176746    -0.06200
C2297       C  0.92141651  0.97756443  0.79772756    -0.17400
C2298       C  0.93272651  0.00642799  0.80803114     0.11000
S2299       S  0.82688273  0.45869644  0.82305559    -0.32400
S2300       S  0.97218499  0.02430826  0.80129177    -0.32400
H2301       H  0.96585017  0.05841115  0.80789974     0.29000
H2302       H  0.81871621  0.44668797  0.80468744     0.29000
H2303       H  0.86522661  0.51203652  0.84077716     0.19600
H2304       H  0.93664672  0.96680299  0.78638747     0.19600
C2305       C  0.91152321  0.22498928  0.82329230    -0.06300
C2306       C  0.88023472  0.23888594  0.82729731    -0.17400
C2307       C  0.86656215  0.26527102  0.81580213     0.10900
C2308       C  0.88483463  0.27834947  0.80009492    -0.06200
C2309       C  0.91554203  0.26347612  0.79575785    -0.17400
C2310       C  0.92888302  0.23683240  0.80702395     0.11000
S2311       S  0.82630577  0.28153164  0.82228422    -0.32400
S2312       S  0.96802853  0.21881941  0.79973145    -0.32400
H2313       H  0.96390679  0.18584174  0.80827974     0.29000
H2314       H  0.81823000  0.29669227  0.80462271     0.29000
H2315       H  0.86680487  0.22988344  0.83978247     0.19600
H2316       H  0.92930833  0.27286568  0.78347727     0.19600
C2317       C  0.65982006  0.28771560  0.04605993    -0.06300
C2318       C  0.65125158  0.32283800  0.04813927    -0.17400
C2319       C  0.62362104  0.33285541  0.05874963     0.10900
C2320       C  0.60496943  0.30726473  0.06868757    -0.06200
C2321       C  0.61491894  0.27210283  0.06752843    -0.17400
C2322       C  0.64150754  0.26190758  0.05587914     0.11000
S2323       S  0.61258677  0.37841454  0.05876406    -0.32400
S2324       S  0.64989914  0.21567730  0.05380838    -0.32400
H2325       H  0.66906877  0.21652868  0.03707519     0.29000
H2326       H  0.63802432  0.39089463  0.04689494     0.29000
H2327       H  0.66545231  0.34229166  0.04046117     0.19600
H2328       H  0.60079013  0.25216578  0.07487327     0.19600
C2329       C  0.88600860  0.28938384  0.07121543    -0.06300
C2330       C  0.88525461  0.26016696  0.05916230    -0.17400
C2331       C  0.85814360  0.25387457  0.04731896     0.10900
C2332       C  0.83173324  0.27814880  0.04696493    -0.06200
C2333       C  0.83201417  0.30646984  0.05975389    -0.17400
C2334       C  0.85839821  0.31167991  0.07221436     0.11000
S2335       S  0.85943280  0.21530360  0.03244077    -0.32400
S2336       S  0.85570387  0.34731959  0.08903994    -0.32400
H2337       H  0.87632666  0.33220827  0.10289212     0.29000
H2338       H  0.82514298  0.21109795  0.03104862     0.29000
H2339       H  0.90643717  0.24294247  0.05840535     0.19600
H2340       H  0.81175479  0.32494355  0.05982624     0.19600
C2341       C  0.59901453  0.21414389  0.93535495    -0.06300
C2342       C  0.61082505  0.24772634  0.93094272    -0.17400
C2343       C  0.63999572  0.26063981  0.93926244     0.10900
C2344       C  0.65796869  0.23946854  0.95220952    -0.06200
C2345       C  0.64571275  0.20629750  0.95680351    -0.17400
C2346       C  0.61652540  0.19372725  0.94879737     0.11000
S2347       S  0.65237156  0.30454168  0.93318234    -0.32400
S2348       S  0.60232175  0.15158587  0.95682995    -0.32400
H2349       H  0.56858298  0.15898103  0.95475535     0.29000
H2350       H  0.68550395  0.30154210  0.93860523     0.29000
H2351       H  0.59789884  0.26353482  0.92052105     0.19600
H2352       H  0.65846531  0.19048067  0.96731280     0.19600
C2353       C  0.89230068  0.21546196  0.93553584    -0.06300
C2354       C  0.87652766  0.24541133  0.92835246    -0.17400
C2355       C  0.84761563  0.25852624  0.93696904     0.10900
C2356       C  0.83393052  0.24093283  0.95295316    -0.06200
C2357       C  0.85002377  0.21129175  0.96013274    -0.17400
C2358       C  0.87890873  0.19863474  0.95176492     0.11000
S2359       S  0.82913907  0.29690491  0.92648497    -0.32400
S2360       S  0.89726604  0.16023150  0.96228210    -0.32400
H2361       H  0.92975727  0.16806548  0.95674476     0.29000
H2362       H  0.80954380  0.30687590  0.94214602     0.29000
H2363       H  0.88597191  0.25776745  0.91550921     0.19600
H2364       H  0.84012450  0.19810532  0.97262261     0.19600
C2365       C  0.59509117  0.47326047  0.07695130    -0.06300
C2366       C  0.59447594  0.50190627  0.06451107    -0.17400
C2367       C  0.62278820  0.51203463  0.05449741     0.10900
C2368       C  0.65168012  0.49143870  0.05579717    -0.06200
C2369       C  0.65297677  0.46468727  0.06957092    -0.17400
C2370       C  0.62534540  0.45648925  0.08076092     0.11000
S2371       S  0.61417202  0.04307057  0.03160951    -0.32400
S2372       S  0.62996179  0.42376491  0.09919130    -0.32400
H2373       H  0.60227412  0.43347402  0.11006645     0.29000
H2374       H  0.64731721  0.05364927  0.03147673     0.29000
H2375       H  0.57154368  0.51569570  0.06206178     0.19600
H2376       H  0.67520337  0.44927900  0.07115759     0.19600
C2377       C  0.87635032  0.45571838  0.07424913    -0.06300
C2378       C  0.85686994  0.43162537  0.06425501    -0.17400
C2379       C  0.82912402  0.44211587  0.05416755     0.10900
C2380       C  0.82135540  0.47798101  0.05308908    -0.06200
C2381       C  0.83985456  0.50219153  0.06359575    -0.17400
C2382       C  0.86676355  0.49128901  0.07459731     0.11000
S2383       S  0.80618425  0.40867800  0.04176839    -0.32400
S2384       S  0.88666343  0.02861496  0.08789863    -0.32400
H2385       H  0.88304884  0.01142555  0.10558235     0.29000
H2386       H  0.77568316  0.42601652  0.04211886     0.29000
H2387       H  0.86366020  0.40431051  0.06385075     0.19600
H2388       H  0.83109057  0.03431414  0.06333216     0.19600
C2389       C  0.64804772  0.01113665  0.95851978    -0.06300
C2390       C  0.62494833  0.03342780  0.96737763    -0.17400
C2391       C  0.59576794  0.04316779  0.95830014     0.10900
C2392       C  0.58970681  0.03202980  0.93944687    -0.06200
C2393       C  0.61228682  0.00927037  0.93056143    -0.17400
C2394       C  0.64085818  0.99788972  0.94008289     0.11000
S2395       S  0.56751883  0.07082016  0.97133307    -0.32400
S2396       S  0.66908675  0.47144172  0.93087755    -0.32400
H2397       H  0.68035248  0.45669461  0.94807640     0.29000
H2398       H  0.53915339  0.06046876  0.96134829     0.29000
H2399       H  0.62964917  0.04325430  0.98166309     0.19600
H2400       H  0.60810434  0.00112200  0.91591773     0.19600
C2401       C  0.82456768  0.02280978  0.95634227    -0.06300
C2402       C  0.83753834  0.99855920  0.94314368    -0.17400
C2403       C  0.86608474  0.00609491  0.93232782     0.10900
C2404       C  0.88294548  0.03800342  0.93525905    -0.06200
C2405       C  0.86988343  0.06194726  0.94851315    -0.17400
C2406       C  0.84108900  0.05494923  0.95888845     0.11000
S2407       S  0.87879302  0.97478545  0.91451502    -0.32400
S2408       S  0.82692416  0.08812679  0.97536794    -0.32400
H2409       H  0.79332107  0.07967371  0.97447011     0.29000
H2410       H  0.88819891  0.99970084  0.90076135     0.29000
H2411       H  0.82531913  0.97364092  0.94125410     0.19600
H2412       H  0.88191663  0.08693454  0.95047585     0.19600
C2413       C  0.66454966  0.01291486  0.67864794    -0.06300
C2414       C  0.68289969  0.01144618  0.69562152    -0.17400
C2415       C  0.67726597  0.98531298  0.70922543     0.10900
C2416       C  0.65693650  0.46322014  0.70899249    -0.06200
C2417       C  0.63696707  0.46462257  0.69266156    -0.17400
C2418       C  0.64186663  0.49030924  0.67857113     0.11000
S2419       S  0.70322566  0.98234431  0.73010088    -0.32400
S2420       S  0.61544116  0.49162097  0.65785870    -0.32400
H2421       H  0.59472774  0.96087998  0.65832171     0.29000
H2422       H  0.73283561  0.50993011  0.72466635     0.29000
H2423       H  0.70241964  0.03017930  0.69795918     0.19600
H2424       H  0.61763245  0.44541431  0.69099108     0.19600
C2425       C  0.66281525  0.28194578  0.70752475    -0.06300
C2426       C  0.64428827  0.28226346  0.69059750    -0.17400
C2427       C  0.64791729  0.25590210  0.67682185     0.10900
C2428       C  0.67041489  0.22836925  0.68002047    -0.06200
C2429       C  0.68938581  0.22847862  0.69681907    -0.17400
C2430       C  0.68626350  0.25516420  0.71037360     0.11000
S2431       S  0.62275912  0.25858218  0.65565155    -0.32400
S2432       S  0.71298931  0.25365253  0.73094197    -0.32400
H2433       H  0.71405664  0.28998205  0.73394731     0.29000
H2434       H  0.62025564  0.22235705  0.65257773     0.29000
H2435       H  0.62631319  0.30280352  0.68832112     0.19600
H2436       H  0.70759111  0.20822407  0.69918561     0.19600
C2437       C  0.83895407  0.46398848  0.70680400    -0.06300
C2438       C  0.80767897  0.46370679  0.69841670    -0.17400
C2439       C  0.80096369  0.98790908  0.68587446     0.10900
C2440       C  0.82317877  0.01459476  0.68045224    -0.06200
C2441       C  0.85184059  0.51689962  0.68897166    -0.17400
C2442       C  0.86133469  0.49094496  0.70199915     0.11000
S2443       S  0.75945246  0.98494057  0.67697299    -0.32400
S2444       S  0.90231505  0.49349044  0.71176864    -0.32400
H2445       H  0.90640940  0.45743814  0.71485498     0.29000
H2446       H  0.75362408  0.02114126  0.67702506     0.29000
H2447       H  0.79027154  0.44340385  0.70226884     0.19600
H2448       H  0.86911319  0.53735562  0.68517942     0.19600
C2449       C  0.82023819  0.23000836  0.67855034    -0.06300
C2450       C  0.79639783  0.25512408  0.68342615    -0.17400
C2451       C  0.80288282  0.28114058  0.69699123     0.10900
C2452       C  0.83418804  0.28252340  0.70576806    -0.06200
C2453       C  0.85809082  0.25750594  0.70076559    -0.17400
C2454       C  0.85149460  0.23142470  0.68722012     0.11000
S2455       S  0.77010231  0.31155079  0.70242240    -0.32400
S2456       S  0.88400855  0.20100834  0.68144330    -0.32400
H2457       H  0.87454122  0.19521162  0.66237371     0.29000
H2458       H  0.77983716  0.31937268  0.72120719     0.29000
H2459       H  0.77225411  0.25402109  0.67688551     0.19600
H2460       H  0.88216128  0.25852385  0.70738146     0.19600
C2461       C  0.67024228  0.48826404  0.32493748    -0.06300
C2462       C  0.64280609  0.50898341  0.32965796    -0.17400
C2463       C  0.63705680  0.03430911  0.31845526     0.10900
C2464       C  0.64962288  0.03662453  0.29960210    -0.06200
C2465       C  0.67571443  0.01472479  0.29413222    -0.17400
C2466       C  0.68678032  0.49438539  0.30739304     0.11000
S2467       S  0.60328511  0.06092321  0.32688043    -0.32400
S2468       S  0.72477393  0.47297365  0.30086847    -0.32400
H2469       H  0.73846060  0.47509131  0.31929823     0.29000
H2470       H  0.58821696  0.06554954  0.30898376     0.29000
H2471       H  0.63026503  0.50485554  0.34318571     0.19600
H2472       H  0.68596491  0.01697330  0.27984142     0.19600
C2473       C  0.64641002  0.21911315  0.29614782    -0.06300
C2474       C  0.67339025  0.24006283  0.29118154    -0.17400
C2475       C  0.68457880  0.26628302  0.30345480     0.10900
C2476       C  0.66742812  0.27288567  0.32075502    -0.06200
C2477       C  0.64064966  0.25161285  0.32577448    -0.17400
C2478       C  0.62988388  0.22492037  0.31364837     0.11000
S2479       S  0.72245735  0.28780640  0.29694903    -0.32400
S2480       S  0.59533932  0.19885908  0.32137663    -0.32400
H2481       H  0.58279812  0.19241521  0.30299058     0.29000
H2482       H  0.73581892  0.28650372  0.31548104     0.29000
H2483       H  0.68657239  0.23498915  0.27794978     0.19600
H2484       H  0.62800508  0.25586165  0.33926720     0.19600
C2485       C  0.84208482  0.03501183  0.30178453    -0.06300
C2486       C  0.86588781  0.00891130  0.30480293    -0.17400
C2487       C  0.85901953  0.48197579  0.31780665     0.10900
C2488       C  0.83003169  0.48405072  0.32895895    -0.06200
C2489       C  0.80783060  0.51161393  0.32583697    -0.17400
C2490       C  0.81294801  0.03486632  0.31292358     0.11000
S2491       S  0.88853501  0.44688017  0.32002475    -0.32400
S2492       S  0.77944207  0.06528122  0.30938078    -0.32400
H2493       H  0.78601307  0.07269674  0.29005281     0.29000
H2494       H  0.87994150  0.43625509  0.33861818     0.29000
H2495       H  0.88814359  0.00872250  0.29619498     0.19600
H2496       H  0.78507411  0.51283064  0.33396180     0.19600
C2497       C  0.82607079  0.26888939  0.32501444    -0.06300
C2498       C  0.80310653  0.24249772  0.32104166    -0.17400
C2499       C  0.80969671  0.21669238  0.30743994     0.10900
C2500       C  0.84045045  0.21647957  0.29793039    -0.06200
C2501       C  0.86330846  0.24310391  0.30175527    -0.17400
C2502       C  0.85644394  0.26926328  0.31522104     0.11000
S2503       S  0.77774319  0.18505510  0.30280574    -0.32400
S2504       S  0.88763070  0.30175673  0.31964366    -0.32400
H2505       H  0.87972845  0.30731942  0.33900973     0.29000
H2506       H  0.78610685  0.17911980  0.28353869     0.29000
H2507       H  0.77950834  0.24236811  0.32833919     0.19600
H2508       H  0.88690473  0.24304849  0.29446477     0.19600
C2509       C  0.58449162  0.22208479  0.54497239    -0.06300
C2510       C  0.60384575  0.19443259  0.53828553    -0.17400
C2511       C  0.63133314  0.18266770  0.54836622     0.10900
C2512       C  0.63930412  0.19832630  0.56626247    -0.06200
C2513       C  0.61924977  0.22564846  0.57315002    -0.17400
C2514       C  0.59232877  0.23803037  0.56259335     0.11000
S2515       S  0.65583227  0.14845588  0.53737014    -0.32400
S2516       S  0.56935664  0.27440960  0.57224341    -0.32400
H2517       H  0.55907272  0.28806624  0.55457722     0.29000
H2518       H  0.63725037  0.14398458  0.52060743     0.29000
H2519       H  0.59747142  0.18242992  0.52476137     0.19600
H2520       H  0.62477823  0.23794250  0.58671269     0.19600
C2521       C  0.91002345  0.21944954  0.54880013    -0.06300
C2522       C  0.90521573  0.23456838  0.56690186    -0.17400
C2523       C  0.87916110  0.22388957  0.57879957     0.10900
C2524       C  0.85613084  0.19906334  0.57195317    -0.06200
C2525       C  0.86204874  0.18330475  0.55404856    -0.17400
C2526       C  0.88891657  0.19249752  0.54273761     0.11000
S2527       S  0.87826744  0.24138956  0.60268288    -0.32400
S2528       S  0.89465373  0.16906354  0.52052916    -0.32400
H2529       H  0.92920105  0.17130623  0.52026635     0.29000
H2530       H  0.87114987  0.20895213  0.61125014     0.29000
H2531       H  0.92207467  0.25454068  0.57183602     0.19600
H2532       H  0.84558672  0.16341006  0.54861570     0.19600
C2533       C  0.62951584  0.29001098  0.42603839    -0.06300
C2534       C  0.62560736  0.25452790  0.43059603    -0.17400
C2535       C  0.59945245  0.24346428  0.44224082     0.10900
C2536       C  0.57716314  0.26847034  0.44960742    -0.06200
C2537       C  0.57980947  0.30344310  0.44393487    -0.17400
C2538       C  0.60541928  0.31436965  0.43203193     0.11000
S2539       S  0.59665344  0.19763123  0.44802941    -0.32400
S2540       S  0.60615301  0.35982500  0.42514075    -0.32400
H2541       H  0.62172089  0.35427471  0.40737818     0.29000
H2542       H  0.56229426  0.19704372  0.45048393     0.29000
H2543       H  0.64385136  0.23566510  0.42588477     0.19600
H2544       H  0.56224183  0.32251402  0.44924698     0.19600
C2545       C  0.90314198  0.27328530  0.45540562    -0.06300
C2546       C  0.90043457  0.30617074  0.44669520    -0.17400
C2547       C  0.87416089  0.31390146  0.43457094     0.10900
C2548       C  0.84940274  0.28865734  0.43150915    -0.06200
C2549       C  0.85275845  0.25528543  0.43952374    -0.17400
C2550       C  0.87953944  0.24721094  0.45130976     0.11000
S2551       S  0.87361432  0.35637252  0.42336555    -0.32400
S2552       S  0.88153702  0.20374059  0.46126503    -0.32400
H2553       H  0.91596621  0.20234892  0.46306570     0.29000
H2554       H  0.85649734  0.34575783  0.40690001     0.29000
H2555       H  0.91881772  0.32602286  0.44950328     0.19600
H2556       H  0.83376697  0.23587339  0.43721525     0.19600
C2557       C  0.58237603  0.01813786  0.55084212    -0.06300
C2558       C  0.58403778  0.05017627  0.56047700    -0.17400
C2559       C  0.61116578  0.05844097  0.57179798     0.10900
C2560       C  0.63736162  0.03425277  0.57341089    -0.06200
C2561       C  0.63464700  0.00127203  0.56485351    -0.17400
C2562       C  0.60736997  0.99292261  0.55356883     0.11000
S2563       S  0.61155405  0.10085010  0.58313381    -0.32400
S2564       S  0.61074262  0.46168055  0.53583201    -0.32400
H2565       H  0.57659815  0.45718292  0.53376662     0.29000
H2566       H  0.63192299  0.09103290  0.59846210     0.29000
H2567       H  0.56470790  0.06940338  0.55850757     0.19600
H2568       H  0.65481851  0.98279816  0.56593101     0.19600
C2569       C  0.91243801  0.02073751  0.55141881    -0.06300
C2570       C  0.88938270  0.99437186  0.55539713    -0.17400
C2571       C  0.86214850  0.00092987  0.56720976     0.10900
C2572       C  0.85769320  0.03461130  0.57500244    -0.06200
C2573       C  0.88195758  0.06013640  0.57208596    -0.17400
C2574       C  0.90906603  0.05374450  0.56028518     0.11000
S2575       S  0.83221199  0.96669722  0.57015377    -0.32400
S2576       S  0.93710222  0.08957112  0.55614482    -0.32400
H2577       H  0.94366599  0.08173424  0.53685257     0.29000
H2578       H  0.82820349  0.97235191  0.58989670     0.29000
H2579       H  0.89204771  0.96895394  0.54870334     0.19600
H2580       H  0.87857040  0.08612616  0.57799196     0.19600
C2581       C  0.64156821  0.46445163  0.43526258    -0.06300
C2582       C  0.61876285  0.48608023  0.42588091    -0.17400
C2583       C  0.59113789  0.49943140  0.43562831     0.10900
C2584       C  0.58527923  0.48920609  0.45479634    -0.06200
C2585       C  0.60851973  0.46821981  0.46410473    -0.17400
C2586       C  0.63724440  0.45759202  0.45501115     0.11000
S2587       S  0.56472065  0.52937361  0.42296200    -0.32400
S2588       S  0.66825677  0.43817371  0.47010795    -0.32400
H2589       H  0.69500180  0.45263438  0.46000262     0.29000
H2590       H  0.55317624  0.54731951  0.43921346     0.29000
H2591       H  0.62227374  0.49229585  0.41088511     0.19600
H2592       H  0.60486774  0.46124317  0.47900524     0.19600
C2593       C  0.90997127  0.47192284  0.45587191    -0.06300
C2594       C  0.90041594  0.48931156  0.43911734    -0.17400
C2595       C  0.87224226  0.47904093  0.42894214     0.10900
C2596       C  0.85251411  0.45112189  0.43587733    -0.06200
C2597       C  0.86282586  0.43361417  0.45254843    -0.17400
C2598       C  0.89125750  0.44322145  0.46233249     0.11000
S2599       S  0.86278954  0.50317984  0.40756196    -0.32400
S2600       S  0.90168481  0.41840464  0.48345258    -0.32400
H2601       H  0.93588533  0.42357679  0.48217005     0.29000
H2602       H  0.86132978  0.47297451  0.39608328     0.29000
H2603       H  0.91460864  0.51154118  0.43418090     0.19600
H2604       H  0.84871518  0.41215635  0.45833887     0.19600
N2605       N  0.95015981  0.99961559  0.50341025    -0.36800
N2606       N  0.49948922  0.99246070  0.47213545    -0.57300
N2607       N  0.54594164  0.51184499  0.50029801    -0.36700
N2608       N  0.49719756  0.51886749  0.52948189    -0.57300
C2609       C  0.93192664  0.99805508  0.48731418     0.26800
C2610       C  0.92598955  0.51415631  0.51596986     0.26800
C2611       C  0.56495528  0.01081759  0.48602750     0.26800
C2612       C  0.56383581  0.52525674  0.51482639     0.26800
C2613       C  0.97587951  0.98096236  0.46441307     0.35400
C2614       C  0.52734096  0.98407669  0.46252060     0.35500
C2615       C  0.96719101  0.51285634  0.54211942     0.35400
C2616       C  0.52367996  0.51625506  0.54087385     0.35500
C2617       C  0.89997184  0.00869064  0.49129240    -0.22000
C2618       C  0.89525837  0.52286233  0.50875638    -0.22000
C2619       C  0.59325902  0.02911742  0.49074789    -0.22000
C2620       C  0.59253035  0.53994893  0.50770234    -0.22000
C2621       C  0.98819674  0.96182986  0.44915453    -0.23100
C2622       C  0.51985594  0.96382817  0.44666882    -0.23100
C2623       C  0.97656004  0.51072471  0.56113883    -0.23100
C2624       C  0.51399921  0.51180973  0.55976756    -0.23100
C2625       C  0.94236500  0.98298375  0.46985456    -0.18400
C2626       C  0.93461823  0.51547514  0.53555423    -0.18400
C2627       C  0.55608329  0.52150400  0.53442740    -0.18400
C2628       C  0.55914332  0.99513616  0.46800834    -0.18400
H2629       H  0.87935126  0.00934419  0.48152843     0.14500
H2630       H  0.87429898  0.53301564  0.51660105     0.14500
H2631       H  0.61287241  0.03705023  0.48116722     0.14500
H2632       H  0.61219937  0.55193301  0.51578703     0.14500
H2633       H  0.97450019  0.94549653  0.43936480     0.12800
H2634       H  0.53680972  0.95307320  0.43623325     0.12800
H2635       H  0.96067842  0.50907961  0.57357652     0.12800
H2636       H  0.52958509  0.50983954  0.57224825     0.12800
H2637       H  0.97347573  0.98876698  0.50501436     0.26000
H2638       H  0.52614477  0.49483759  0.50176244     0.26000
N2639       N  0.54429488  0.75362893  0.49977057    -0.36800
N2640       N  0.99705162  0.74110670  0.53030955    -0.57300
N2641       N  0.94530891  0.74594017  0.50185005    -0.36700
N2642       N  0.99207597  0.76268400  0.47200355    -0.57300
C2643       C  0.56326856  0.75572151  0.51559232     0.26800
C2644       C  0.56210673  0.76670760  0.48501216     0.26800
C2645       C  0.92816359  0.74608340  0.51845713     0.26800
C2646       C  0.92527437  0.75907040  0.48819607     0.26800
C2647       C  0.52312089  0.73303819  0.53944111     0.35400
C2648       C  0.97217485  0.72596256  0.54017312     0.35500
C2649       C  0.51962596  0.76238742  0.45956525     0.35400
C2650       C  0.96493034  0.75894480  0.46118724     0.35500
C2651       C  0.59344029  0.77031939  0.51087057    -0.22000
C2652       C  0.59268184  0.77736180  0.49158093    -0.22000
C2653       C  0.89698355  0.75973875  0.51538712    -0.22000
C2654       C  0.89517962  0.76803544  0.49626490    -0.22000
C2655       C  0.51459648  0.71437761  0.55572032    -0.23100
C2656       C  0.98451809  0.70733477  0.55556676    -0.23100
C2657       C  0.50949104  0.76027534  0.44068531    -0.23100
C2658       C  0.97340753  0.75699413  0.44198149    -0.23100
C2659       C  0.55560098  0.74088595  0.53358935    -0.18400
C2660       C  0.55245117  0.76691212  0.46556686    -0.18400
C2661       C  0.93258731  0.76033232  0.46841983    -0.18400
C2662       C  0.93851941  0.72987713  0.53558316    -0.18400
H2663       H  0.61414060  0.77463426  0.52028859     0.14500
H2664       H  0.61269151  0.78830479  0.48326039     0.14500
H2665       H  0.87728273  0.76243829  0.52575832     0.14500
H2666       H  0.87384227  0.77856953  0.48902683     0.14500
H2667       H  0.53102380  0.70291557  0.56614979     0.12800
H2668       H  0.97075807  0.69250233  0.56606871     0.12800
H2669       H  0.52479965  0.76048311  0.42797560     0.12800
H2670       H  0.95701004  0.75452552  0.42988349     0.12800
H2671       H  0.52258725  0.73959792  0.49866423     0.26000
H2672       H  0.96741881  0.73281984  0.49948629     0.26000
C2673       C  0.82816336  0.93417965  0.42814135     0.42300
N2674       N  0.78649903  0.93017018  0.40922703     0.01200
C2675       C  0.67968162  0.79014110  0.40154666    -0.06700
H2676       H  0.81155336  0.76056244  0.39587951     0.06700
C2677       C  0.80852132  0.82840386  0.33465100    -0.07000
Co2678     Co  0.74562344  0.86721694  0.41812214     0.74200
N2679       N  0.77952607  0.80412878  0.40272142    -0.26200
Co2680     Co  0.74593222  0.80931699  0.38037221     0.74100
C2681       C  0.81823138  0.79239901  0.33902097     0.42400
N2682       N  0.79087526  0.91588476  0.35227554     0.00800
N2683       N  0.78385735  0.81080970  0.36031024     0.00900
N2684       N  0.68126606  0.82957670  0.42565016    -0.47100
H2685       H  0.81182229  0.88486127  0.44469304     0.06700
N2686       N  0.77909242  0.82651509  0.41705853     0.01200
N2687       N  0.71311054  0.81575055  0.35793203     0.00900
C2688       C  0.68151142  0.80209018  0.33451556     0.42600
N2689       N  0.79033827  0.93796899  0.36678762    -0.25700
C2690       C  0.68666830  0.91111968  0.43038934    -0.06600
N2691       N  0.81286277  0.94937378  0.41307419    -0.46800
N2692       N  0.69289254  0.79131661  0.35162416    -0.47000
C2693       C  0.67302010  0.94519017  0.42605569     0.42300
N2694       N  0.70769809  0.83171018  0.41465853     0.01200
N2695       N  0.71937121  0.94255290  0.36430405    -0.25700
N2696       N  0.78347325  0.90331313  0.42090767    -0.26200
N2697       N  0.71994972  0.92025065  0.34984292     0.00800
H2698       H  0.69864379  0.99421559  0.36731284     0.06700
H2699       H  0.69771505  0.85041303  0.31738861     0.06800
N2700       N  0.70745026  0.80923240  0.40035868    -0.26200
N2701       N  0.78707383  0.83744201  0.34844637    -0.25800
N2702       N  0.71405269  0.93510789  0.40731048     0.01200
C2703       C  0.81899440  0.79218382  0.42361981     0.42600
C2704       C  0.81191513  0.96360286  0.36323109    -0.07100
N2705       N  0.71609201  0.84214363  0.34588800    -0.25800
H2706       H  0.81216688  0.84268342  0.32145625     0.06700
N2707       N  0.80225932  0.82036924  0.42981472    -0.47100
H2708       H  0.81312506  0.98791952  0.37110664     0.06700
C2709       C  0.68951115  0.96247853  0.33989053     0.42400
C2710       C  0.80819266  0.90389220  0.43347991    -0.06600
Co2711     Co  0.75249891  0.93732369  0.38702778     0.73800
N2712       N  0.81145904  0.92580691  0.33859648    -0.46800
C2713       C  0.66222363  0.80436368  0.41818599     0.42700
N2714       N  0.69084100  0.95868031  0.41131361    -0.54000
Co2715     Co  0.75358047  0.87894682  0.34890607     0.73900
C2716       C  0.69690630  0.83594836  0.33067967    -0.07100
C2717       C  0.80414323  0.78117976  0.40558053    -0.06700
N2718       N  0.71211930  0.90754189  0.41856016    -0.26200
N2719       N  0.80176267  0.78351526  0.35511053    -0.46900
H2720       H  0.67221994  0.76986354  0.39169250     0.06700
C2721       C  0.70044815  0.96996631  0.35940807    -0.07100
Cl2722     Cl  0.74942972  0.87324417  0.38355896    -0.50100
C2723       C  0.82572009  0.95593178  0.34431301     0.42500
H2724       H  0.67922402  0.89226328  0.44104931     0.06700
N2725       N  0.70251034  0.93121323  0.33505306    -0.46800
C2726       C  0.82161825  0.54796724  0.58065350     0.42300
N2727       N  0.78069446  0.55814738  0.59912848     0.01200
C2728       C  0.68264651  0.70624996  0.59488069    -0.06700
H2729       H  0.81468034  0.72640047  0.60585136     0.06700
C2730       C  0.79910200  0.66952906  0.66963945    -0.07000
Co2731     Co  0.74480267  0.62167088  0.58592170     0.74200
N2732       N  0.78094428  0.68441963  0.59984924    -0.26200
Co2733     Co  0.74355002  0.68562988  0.62077968     0.74100
C2734       C  0.81132411  0.70413421  0.66429992     0.42400
N2735       N  0.77943133  0.58145807  0.65533700     0.00800
N2736       N  0.77824438  0.68532738  0.64261208     0.00900
N2737       N  0.68603812  0.66343460  0.57283489    -0.47100
H2738       H  0.80987980  0.59496134  0.56156600     0.06700
N2739       N  0.78098868  0.65955088  0.58680187     0.01200
N2740       N  0.70725168  0.68425998  0.64202551     0.00900
C2741       C  0.67261469  0.70130382  0.66355508     0.42600
N2742       N  0.77991474  0.55765655  0.64166653    -0.25700
C2743       C  0.68407104  0.57970806  0.57413080    -0.06600
N2744       N  0.80579986  0.53630489  0.59649734    -0.46800
N2745       N  0.68720801  0.71019708  0.64681424    -0.47000
C2746       C  0.66661446  0.54956442  0.58126339     0.42300
N2747       N  0.70924579  0.66024828  0.58586308     0.01200
N2748       N  0.70836445  0.55672197  0.64180065    -0.25700
N2749       N  0.77991490  0.58311559  0.58615669    -0.26200
N2750       N  0.70821993  0.58079790  0.65530090     0.00800
H2751       H  0.68669652  0.50558093  0.64024377     0.06700
H2752       H  0.68357896  0.65336421  0.68215363     0.06800
N2753       N  0.70809033  0.68488282  0.59899689    -0.26200
N2754       N  0.77864006  0.66015917  0.65552608    -0.25800
N2755       N  0.70821503  0.55847360  0.59909247     0.01200
C2756       C  0.82614718  0.68718638  0.58132609     0.42600
C2757       C  0.80111379  0.53241687  0.64651920    -0.07100
N2758       N  0.70714735  0.65889135  0.65483286    -0.25800
H2759       H  0.80082303  0.65658137  0.68335878     0.06700
N2760       N  0.80712982  0.66041286  0.57555690    -0.47100
H2761       H  0.80308581  0.50735285  0.63942703     0.06700
C2762       C  0.67505775  0.54113106  0.66587411     0.42400
C2763       C  0.80456007  0.57866703  0.57383457    -0.06600
Co2764     Co  0.74428832  0.55688307  0.62036375     0.73800
N2765       N  0.79863705  0.57295619  0.66989127    -0.46800
C2766       C  0.66793782  0.69171525  0.57733566     0.42700
N2767       N  0.68266370  0.53726937  0.59678680    -0.46800
Co2768     Co  0.74340384  0.62041860  0.65549085     0.73900
C2769       C  0.68550469  0.66685714  0.66859276    -0.07100
C2770       C  0.80834031  0.70378325  0.59738807    -0.06700
N2771       N  0.70918634  0.58348775  0.58609655    -0.26200
N2772       N  0.79693131  0.71218706  0.64747482    -0.46900
H2773       H  0.67568780  0.72916698  0.60301318     0.06700
C2774       C  0.68785449  0.53095691  0.64704380    -0.07100
Cl2775     Cl  0.74397569  0.62113544  0.62069399    -0.50100
C2776       C  0.81317219  0.54216012  0.66545662     0.42500
H2777       H  0.67868103  0.59607371  0.56197366     0.06700
N2778       N  0.68905361  0.57231054  0.66993231    -0.46800
N2779       N  0.68823962  0.99700066  0.00420195    -0.36800
N2780       N  0.73632826  0.50702359  0.97577383    -0.57300
N2781       N  0.78676009  0.00489328  0.00402014    -0.36700
N2782       N  0.73614655  0.99754202  0.03353457    -0.57300
C2783       C  0.66975779  0.49499920  0.99075327     0.26800
C2784       C  0.67073199  0.98509860  0.01936588     0.26800
C2785       C  0.80531373  0.50072282  0.98887036     0.26800
C2786       C  0.80526694  0.99521664  0.01921120     0.26800
C2787       C  0.70880308  0.51697312  0.96630308     0.35400
C2788       C  0.76251157  0.51827840  0.96539829     0.35500
C2789       C  0.70933689  0.00154281  0.04480006     0.35400
C2790       C  0.76267469  0.00213708  0.04473172     0.35500
C2791       C  0.64132792  0.47714833  0.99580509    -0.22000
C2792       C  0.64349677  0.96670623  0.01297180    -0.22000
C2793       C  0.83641353  0.48826368  0.99334334    -0.22000
C2794       C  0.83681875  0.98682816  0.01296154    -0.22000
C2795       C  0.71755256  0.53436263  0.94964076    -0.23100
C2796       C  0.75159451  0.53493253  0.94899465    -0.23100
C2797       C  0.71887217  0.00954592  0.06331268    -0.23100
C2798       C  0.75280816  0.00915369  0.06335030    -0.23100
C2799       C  0.67621094  0.50882158  0.97235132    -0.18400
C2800       C  0.67703591  0.99380593  0.03869283    -0.18400
C2801       C  0.79519664  0.99539479  0.03869241    -0.18400
C2802       C  0.79598951  0.51306174  0.97060435    -0.18400
H2803       H  0.62179147  0.46868238  0.98639145     0.14500
H2804       H  0.62443763  0.95465735  0.02158458     0.14500
H2805       H  0.85708124  0.48455631  0.98373521     0.14500
H2806       H  0.85766440  0.97900887  0.02156616     0.14500
H2807       H  0.70117755  0.54534954  0.93903865     0.12800
H2808       H  0.76657786  0.54657399  0.93786327     0.12800
H2809       H  0.70318951  0.01375689  0.07564764     0.12800
H2810       H  0.76838849  0.01302738  0.07569470     0.12800
H2811       H  0.70683320  0.01570670  0.00467277     0.26000
H2812       H  0.76348514  0.01613530  0.00453653     0.26000
N2813       N  0.79335284  0.76148326  0.00056748    -0.36800
N2814       N  0.74391042  0.77131065  0.02937622    -0.57300
N2815       N  0.69376983  0.76272184  0.99982698    -0.36700
N2816       N  0.74357015  0.75561822  0.97027326    -0.57300
C2817       C  0.81197900  0.77295434  0.01532041     0.26800
C2818       C  0.81176215  0.76469574  0.98454044     0.26800
C2819       C  0.67507862  0.77418310  0.01464124     0.26800
C2820       C  0.67470778  0.76366709  0.98394598     0.26800
C2821       C  0.77017217  0.76892173  0.04108036     0.35400
C2822       C  0.71702268  0.77110883  0.04071564     0.35500
C2823       C  0.77067883  0.74521181  0.96043363     0.35400
C2824       C  0.71697993  0.74520549  0.96007274     0.35500
C2825       C  0.84237912  0.78390805  0.00853217    -0.22000
C2826       C  0.84229771  0.77853073  0.98911492    -0.22000
C2827       C  0.64379369  0.78235183  0.00806617    -0.22000
C2828       C  0.64350778  0.77551416  0.98881094    -0.22000
C2829       C  0.75994390  0.76715753  0.05999452    -0.23100
C2830       C  0.72618510  0.76895436  0.05977440    -0.23100
C2831       C  0.76132231  0.72916122  0.94353212    -0.23100
C2832       C  0.72730564  0.72924921  0.94327572    -0.23100
C2833       C  0.80315294  0.77138668  0.03489084    -0.18400
C2834       C  0.80362962  0.75079004  0.96645765    -0.18400
C2835       C  0.68361831  0.75062258  0.96566388    -0.18400
C2836       C  0.68448103  0.77527336  0.03416354    -0.18400
H2837       H  0.86281948  0.79391612  0.01676908     0.14500
H2838       H  0.86275581  0.78327748  0.97949481     0.14500
H2839       H  0.62285884  0.79133768  0.01633906     0.14500
H2840       H  0.62234497  0.77832453  0.97960254     0.14500
H2841       H  0.77517078  0.76559004  0.07264099     0.12800
H2842       H  0.71022663  0.76890144  0.07221079     0.12800
H2843       H  0.77731755  0.71847861  0.93256912     0.12800
H2844       H  0.71195011  0.71862299  0.93207283     0.12800
H2845       H  0.77164103  0.74735349  0.00165347     0.26000
H2846       H  0.71657343  0.75081342  0.00092078     0.26000
C2847       C  0.90927570  0.54954334  0.92372324     0.42300
N2848       N  0.93084544  0.58266243  0.90235136     0.01200
C2849       C  0.56864265  0.57350334  0.84700915    -0.06700
H2850       H  0.59785644  0.59781060  0.91554925     0.06700
C2851       C  0.53882907  0.70998917  0.91722300    -0.07000
Co2852     Co  0.99342725  0.55706723  0.88458328     0.74200
N2853       N  0.55111954  0.58695921  0.90251207    -0.26200
Co2854     Co  0.54933429  0.62425620  0.88098647     0.74100
C2855       C  0.57117283  0.69612146  0.92350929     0.42400
N2856       N  0.95168675  0.68378942  0.90349104     0.00800
N2857       N  0.55066930  0.66278118  0.90179697     0.00900
N2858       N  0.53137870  0.53078437  0.85200931    -0.47100
H2859       H  0.95342297  0.51111462  0.92194088     0.06700
N2860       N  0.52874769  0.56231470  0.90510580     0.01200
N2861       N  0.54630908  0.66436202  0.86025581     0.00900
C2862       C  0.55602297  0.70402120  0.83913903     0.42600
N2863       N  0.92990672  0.65835064  0.90181586    -0.25700
C2864       C  0.95479227  0.52987409  0.85021279    -0.06600
N2865       N  0.90474211  0.57849592  0.91335087    -0.46800
N2866       N  0.56727723  0.67316136  0.84634422    -0.47000
C2867       C  0.92603063  0.54002951  0.83942652     0.42300
N2868       N  0.52630587  0.55755915  0.86361028     0.01200
N2869       N  0.93325769  0.65918568  0.86034210    -0.25700
N2870       N  0.95375559  0.55848053  0.90476082    -0.26200
N2871       N  0.95482092  0.68482561  0.86192771     0.00800
H2872       H  0.89117817  0.65206604  0.84182027     0.06700
H2873       H  0.51268704  0.73752950  0.84942279     0.06800
N2874       N  0.54760370  0.58318252  0.86101561    -0.26200
N2875       N  0.52760950  0.68689303  0.90400137    -0.25800
N2876       N  0.93506087  0.57875382  0.86100954     0.01200
C2877       C  0.56617197  0.55242125  0.92613437     0.42600
C2878       C  0.90544348  0.66339999  0.91424263    -0.07100
N2879       N  0.52322082  0.68828462  0.86264615    -0.25800
H2880       H  0.52713854  0.73448524  0.92097045     0.06700
N2881       N  0.53743769  0.54004505  0.91887056    -0.47100
H2882       H  0.88321635  0.64795595  0.91522759     0.06700
C2883       C  0.92520101  0.69986378  0.83807205     0.42400
C2884       C  0.94199466  0.53561946  0.91800533    -0.06600
Co2885     Co  0.93193716  0.61977213  0.88106513     0.73800
N2886       N  0.94214852  0.70775003  0.91621466    -0.46800
C2887       C  0.55786295  0.53826315  0.84110893     0.42700
N2888       N  0.91427742  0.57022960  0.84707786    -0.46800
Co2889     Co  0.99024665  0.68601474  0.88328515     0.73900
C2890       C  0.52710307  0.71374905  0.84996545    -0.07100
C2891       C  0.57531238  0.58285152  0.91514104    -0.06700
N2892       N  0.95835331  0.55498948  0.86325504    -0.26200
N2893       N  0.57636958  0.66728580  0.91301062    -0.46900
H2894       H  0.58938671  0.58884039  0.84220868     0.06700
C2895       C  0.91274579  0.66685391  0.84584029    -0.07100
Cl2896     Cl  0.99193582  0.62150976  0.88263330    -0.50100
C2897       C  0.91352778  0.69566487  0.92383517     0.42500
H2898       H  0.96962964  0.50645707  0.84906134     0.06700
N2899       N  0.95096479  0.70943236  0.84886224    -0.46800
N2900       N  0.64250168  0.87023358  0.72573129    -0.36800
N2901       N  0.62933435  0.81615463  0.75375957    -0.57300
N2902       N  0.60800488  0.87028780  0.78081901    -0.36700
N2903       N  0.62521298  0.92436025  0.75362685    -0.57300
C2904       C  0.65575627  0.84214216  0.71679340     0.26800
C2905       C  0.65399434  0.89901820  0.71672760     0.26800
C2906       C  0.60726752  0.84166756  0.79221164     0.26800
C2907       C  0.60561988  0.89883700  0.79226611     0.26800
C2908       C  0.63309463  0.79596303  0.73802332     0.35400
C2909       C  0.61486927  0.79573714  0.76710008     0.35500
C2910       C  0.62811832  0.94422027  0.73772312     0.35400
C2911       C  0.61039556  0.94459961  0.76701199     0.35500
C2912       C  0.67587183  0.85314013  0.70191083    -0.22000
C2913       C  0.67480372  0.88910544  0.70188014    -0.22000
C2914       C  0.60406342  0.85210211  0.81113244    -0.22000
C2915       C  0.60312533  0.88814677  0.81117319    -0.22000
C2916       C  0.62162446  0.76246357  0.74149056    -0.23100
C2917       C  0.61004376  0.76231029  0.75992675    -0.23100
C2918       C  0.61543403  0.97734470  0.74108605    -0.23100
C2919       C  0.60428108  0.97760791  0.75965686    -0.23100
C2920       C  0.64805826  0.80692787  0.72081381    -0.18400
C2921       C  0.64420315  0.93377255  0.72066141    -0.18400
C2922       C  0.60321797  0.93406121  0.78598057    -0.18400
C2923       C  0.60650297  0.80645830  0.78583630    -0.18400
H2924       H  0.68949242  0.83692027  0.69194482     0.14500
H2925       H  0.68745329  0.90601041  0.69185267     0.14500
H2926       H  0.60205020  0.83544059  0.82359619     0.14500
H2927       H  0.60027664  0.90458495  0.82368057     0.14500
H2928       H  0.62151210  0.74046958  0.73173970     0.12800
H2929       H  0.59910805  0.74015054  0.76717047     0.12800
H2930       H  0.62138895  0.50047065  0.73517491     0.12800
H2931       H  0.59847805  0.49868870  0.77047324     0.12800
H2932       H  0.62353160  0.86972791  0.73563387     0.26000
H2933       H  0.60596142  0.87004871  0.76609474     0.26000
N2934       N  0.86552803  0.92470774  0.75470036    -0.36800
N2935       N  0.87384796  0.87092264  0.78365937    -0.57300
N2936       N  0.86081485  0.81804758  0.75439705    -0.36700
N2937       N  0.84930100  0.87198302  0.72627975    -0.57300
C2938       C  0.86582826  0.94439478  0.77079470     0.26800
C2939       C  0.85343732  0.94503805  0.74051570     0.26800
C2940       C  0.86110690  0.79822868  0.77040901     0.26800
C2941       C  0.84599038  0.79903340  0.74052287     0.26800
C2942       C  0.88516774  0.89886009  0.79355130     0.35400
C2943       C  0.88401471  0.84206502  0.79316064     0.35500
C2944       C  0.85173053  0.90017403  0.71473354     0.35400
C2945       C  0.84783667  0.84369978  0.71471604     0.35500
C2946       C  0.85411000  0.97763188  0.76674532    -0.22000
C2947       C  0.84610156  0.97798028  0.74766998    -0.22000
C2948       C  0.84649612  0.76620566  0.76668639    -0.22000
C2949       C  0.83667992  0.76683018  0.74786923    -0.22000
C2950       C  0.90187729  0.88772734  0.80969473    -0.23100
C2951       C  0.90122330  0.85171607  0.80942418    -0.23100
C2952       C  0.85176731  0.88976933  0.69572488    -0.23100
C2953       C  0.84931066  0.85396613  0.69571417    -0.23100
C2954       C  0.87932013  0.93423974  0.78854713    -0.18400
C2955       C  0.85063662  0.93527020  0.72107018    -0.18400
C2956       C  0.84278447  0.80903635  0.72110643    -0.18400
C2957       C  0.87661327  0.80721760  0.78780122    -0.18400
H2958       H  0.84942517  0.50060269  0.77639621     0.14500
H2959       H  0.83371197  0.50145141  0.73985801     0.14500
H2960       H  0.84344546  0.74453664  0.77648838     0.14500
H2961       H  0.82461670  0.74569494  0.74036484     0.14500
H2962       H  0.91327864  0.90385975  0.82052870     0.12800
H2963       H  0.91199830  0.83460819  0.82003795     0.12800
H2964       H  0.85283707  0.90630496  0.68317155     0.12800
H2965       H  0.84820790  0.83745237  0.68315476     0.12800
H2966       H  0.87667418  0.90056406  0.75296555     0.26000
H2967       H  0.87374015  0.84108396  0.75251628     0.26000
N2968       N  0.60507290  0.62769546  0.22298856    -0.36800
N2969       N  0.62394917  0.68297215  0.24887708    -0.57300
N2970       N  0.63436547  0.63080226  0.27907259    -0.36700
N2971       N  0.61869308  0.57546153  0.25231793    -0.57300
C2972       C  0.60723683  0.65484516  0.21061239     0.26800
C2973       C  0.60412484  0.59800606  0.21248502     0.26800
C2974       C  0.64748306  0.65960119  0.28726463     0.26800
C2975       C  0.64541490  0.60267902  0.28894972     0.26800
C2976       C  0.61162941  0.70273132  0.23452528     0.35400
C2977       C  0.62692842  0.70431994  0.26417503     0.35500
C2978       C  0.60387870  0.55487101  0.23922218     0.35400
C2979       C  0.62072894  0.55641611  0.26856315     0.35500
C2980       C  0.60768847  0.64222194  0.19200847    -0.22000
C2981       C  0.60569544  0.60636026  0.19318758    -0.22000
C2982       C  0.66651923  0.64974515  0.30281257    -0.22000
C2983       C  0.66532367  0.61381409  0.30382326    -0.22000
C2984       C  0.60697924  0.73682500  0.24073105    -0.23100
C2985       C  0.61692797  0.73788804  0.25946742    -0.23100
C2986       C  0.59646576  0.52261285  0.24719513    -0.23100
C2987       C  0.60734928  0.52352774  0.26576467    -0.23100
C2988       C  0.60614355  0.69073077  0.21563793    -0.18400
C2989       C  0.59907647  0.56389129  0.21981429    -0.18400
C2990       C  0.63670593  0.56741511  0.28543122    -0.18400
C2991       C  0.64085453  0.69460577  0.28188359    -0.18400
H2992       H  0.60872087  0.65732027  0.17892321     0.14500
H2993       H  0.60481961  0.58850506  0.18118155     0.14500
H2994       H  0.67972033  0.66668301  0.31252731     0.14500
H2995       H  0.67745437  0.59776714  0.31443654     0.14500
H2996       H  0.59770183  0.75876470  0.23258892     0.12800
H2997       H  0.61694580  0.76080615  0.26855754     0.12800
H2998       H  0.58435405  0.99561164  0.24147033     0.12800
H2999       H  0.60767233  0.99765470  0.27675131     0.12800
H3000       H  0.60007278  0.62946759  0.23752590     0.26000
H3001       H  0.61619321  0.63075260  0.26867232     0.26000
N3002       N  0.86469763  0.56835623  0.25169607    -0.36800
N3003       N  0.87370296  0.61907348  0.22102961    -0.57300
N3004       N  0.86346595  0.67455843  0.24877471    -0.36700
N3005       N  0.85187110  0.62385585  0.27866243    -0.57300
C3006       C  0.86310678  0.54766365  0.23604743     0.26800
C3007       C  0.85161562  0.55012229  0.26645545     0.26800
C3008       C  0.86283620  0.69248677  0.23212882     0.26800
C3009       C  0.84919334  0.69506337  0.26224367     0.26800
C3010       C  0.88468245  0.58988279  0.21217414     0.35400
C3011       C  0.88540306  0.64642649  0.21084207     0.35500
C3012       C  0.85433135  0.59681459  0.29098137     0.35400
C3013       C  0.85267400  0.65327627  0.28930280     0.35500
C3014       C  0.84895404  0.51590098  0.24088323    -0.22000
C3015       C  0.84155214  0.51750262  0.26008468    -0.22000
C3016       C  0.84806183  0.72477067  0.23500104    -0.22000
C3017       C  0.83923082  0.72631728  0.25401262    -0.22000
C3018       C  0.90299470  0.59865590  0.19610793    -0.23100
C3019       C  0.90359500  0.63458187  0.19531604    -0.23100
C3020       C  0.85688398  0.60907054  0.30958135    -0.23100
C3021       C  0.85580132  0.64492411  0.30852009    -0.23100
C3022       C  0.87719085  0.55548316  0.21806430    -0.18400
C3023       C  0.85046433  0.56142927  0.28571190    -0.18400
C3024       C  0.84721264  0.68720564  0.28198424    -0.18400
C3025       C  0.87828236  0.68180828  0.21495892    -0.18400
H3026       H  0.84881557  0.99575025  0.23228528     0.14500
H3027       H  0.82959189  0.99844402  0.26844613     0.14500
H3028       H  0.84451224  0.74526988  0.22452924     0.14500
H3029       H  0.82747982  0.74827011  0.26104803     0.14500
H3030       H  0.91477243  0.58103013  0.18606993     0.12800
H3031       H  0.91581042  0.65015704  0.18449563     0.12800
H3032       H  0.85835944  0.59376934  0.32257602     0.12800
H3033       H  0.85639647  0.66275095  0.32054386     0.12800
H3034       H  0.87779192  0.59157537  0.25272268     0.26000
H3035       H  0.87679474  0.65183072  0.25124332     0.26000
C3036       C  0.90519977  0.94699114  0.08275319     0.42300
N3037       N  0.94727224  0.93855018  0.10067468     0.01200
C3038       C  0.55586294  0.79944875  0.09508881    -0.06700
H3039       H  0.92849389  0.76570575  0.10561341     0.06700
C3040       C  0.93553644  0.82632803  0.16971691    -0.07000
Co3041     Co  0.98776075  0.87889024  0.08658897     0.74200
N3042       N  0.95739108  0.81216265  0.10013764    -0.26200
Co3043     Co  0.99373611  0.81392263  0.12110927     0.74100
C3044       C  0.92509295  0.79113229  0.16444270     0.42400
N3045       N  0.95125353  0.91353834  0.15661342     0.00800
N3046       N  0.95856023  0.81092059  0.14306683     0.00900
N3047       N  0.55206891  0.84309264  0.07341446    -0.47100
H3048       H  0.91975372  0.90128954  0.06298185     0.06700
N3049       N  0.95523051  0.83699927  0.08709855     0.01200
N3050       N  0.52931262  0.81479314  0.14043900     0.00900
C3051       C  0.56407996  0.79577502  0.16115724     0.42600
N3052       N  0.94862558  0.93736385  0.14309112    -0.25700
C3053       C  0.54631727  0.92774836  0.07344921    -0.06600
N3054       N  0.92115148  0.95903818  0.09839575    -0.46800
N3055       N  0.54957339  0.78861684  0.14427293    -0.47000
C3056       C  0.56168216  0.95897496  0.08125785     0.42300
N3057       N  0.02662184  0.84410270  0.08656365     0.01200
N3058       N  0.52281935  0.94245112  0.14153943    -0.25700
N3059       N  0.94918618  0.91398407  0.08749901    -0.26200
N3060       N  0.52528793  0.91776572  0.15463593     0.00800
H3061       H  0.54364826  0.99389307  0.13926294     0.06700
H3062       H  0.55211912  0.84109206  0.18158627     0.06800
N3063       N  0.02932859  0.81919899  0.09952138    -0.26200
N3064       N  0.95678152  0.83592743  0.15604846    -0.25800
N3065       N  0.01960021  0.94466484  0.10043787     0.01200
C3066       C  0.91603118  0.80191143  0.08030775     0.42600
C3067       C  0.92469206  0.95976267  0.14787699    -0.07100
N3068       N  0.52910592  0.83894818  0.15393168    -0.25800
H3069       H  0.93094810  0.84064241  0.18280626     0.06700
N3070       N  0.93068027  0.83199286  0.07505603    -0.47100
H3071       H  0.92017890  0.98446788  0.14081461     0.06700
C3072       C  0.55893274  0.95774716  0.16389874     0.42400
C3073       C  0.92386987  0.91720630  0.07553664    -0.06600
Co3074     Co  0.98373436  0.94191329  0.12172566     0.73800
N3075       N  0.93060956  0.91919830  0.17096587    -0.46800
C3076       C  0.57201512  0.81680245  0.07895334     0.42700
N3077       N  0.54498485  0.96786955  0.09727284    -0.46800
Co3078     Co  0.98979957  0.87741472  0.15639556     0.73900
C3079       C  0.55055096  0.82935465  0.16753690    -0.07100
C3080       C  0.93351451  0.78856960  0.09698804    -0.06700
N3081       N  0.02032482  0.92082364  0.08681684    -0.26200
N3082       N  0.94017179  0.78351560  0.14763279    -0.46900
H3083       H  0.56445565  0.77791426  0.10377184     0.06700
C3084       C  0.54329987  0.96848456  0.14605494    -0.07100
Cl3085     Cl  0.98878098  0.87801437  0.12149444    -0.50100
C3086       C  0.91293122  0.94810284  0.16658172     0.42500
H3087       H  0.55212154  0.91346780  0.06053937     0.06700
N3088       N  0.54623336  0.92611705  0.16837734    -0.46800
C3089       C  0.90261924  0.97353899  0.18123843    -0.06300
C3090       C  0.92258387  0.97778522  0.19743880    -0.17400
C3091       C  0.91191855  0.50299034  0.20936200     0.10900
C3092       C  0.88565853  0.52593667  0.20517401    -0.06200
C3093       C  0.86672577  0.52034761  0.18871110    -0.17400
C3094       C  0.87603464  0.99670555  0.17822655     0.11000
S3095       S  0.93813023  0.50845397  0.22993294    -0.32400
S3096       S  0.84829082  0.99271845  0.15824428    -0.32400
H3097       H  0.85170495  0.95633565  0.15608105     0.29000
H3098       H  0.93727888  0.54520506  0.23000937     0.29000
H3099       H  0.94350138  0.96066344  0.19967774     0.19600
H3100       H  0.84617387  0.53754099  0.18565718     0.19600
C3101       C  0.88941547  0.70964792  0.20157701    -0.06300
C3102       C  0.91415007  0.73224577  0.20795554    -0.17400
C3103       C  0.92592242  0.75948706  0.19646558     0.10900
C3104       C  0.91305871  0.76383173  0.17776856    -0.06200
C3105       C  0.88850356  0.74090018  0.17131718    -0.17400
C3106       C  0.87599085  0.71444509  0.18316089     0.11000
S3107       S  0.95817325  0.78710009  0.20589619    -0.32400
S3108       S  0.84256506  0.68826551  0.17415955    -0.32400
H3109       H  0.82788315  0.68162770  0.19203679     0.29000
H3110       H  0.96208925  0.77013490  0.22359540     0.29000
H3111       H  0.92420239  0.72835316  0.22212884     0.19600
H3112       H  0.87840686  0.74420432  0.15709465     0.19600
C3113       C  0.58840919  0.53599494  0.20636960    -0.06300
C3114       C  0.61074838  0.50932021  0.20150534    -0.17400
C3115       C  0.60232821  0.48322599  0.18833024     0.10900
C3116       C  0.56883574  0.98283924  0.17875673    -0.06200
C3117       C  0.54641106  0.00903273  0.18412881    -0.17400
C3118       C  0.55670587  0.53603380  0.19812469     0.11000
S3119       S  0.63312508  0.45098751  0.18235685    -0.32400
S3120       S  0.52302424  0.06512996  0.20460393    -0.32400
H3121       H  0.53649180  0.57579313  0.22231768     0.29000
H3122       H  0.62167559  0.94555000  0.16249880     0.29000
H3123       H  0.63513116  0.50927979  0.20775354     0.19600
H3124       H  0.52248078  0.01033403  0.17734152     0.19600
C3125       C  0.59707916  0.71667993  0.20053838    -0.06300
C3126       C  0.56558980  0.71444028  0.19243928    -0.17400
C3127       C  0.55435152  0.73942263  0.17938375     0.10900
C3128       C  0.57481071  0.76799293  0.17444038    -0.06200
C3129       C  0.60650351  0.76997892  0.18223796    -0.17400
C3130       C  0.61818456  0.74419419  0.19477902     0.11000
S3131       S  0.51351697  0.73335321  0.16987837    -0.32400
S3132       S  0.66030092  0.74758480  0.20264673    -0.32400
H3133       H  0.66508491  0.71162315  0.20576010     0.29000
H3134       H  0.50492268  0.76892933  0.17018095     0.29000
H3135       H  0.54934496  0.69329697  0.19662834     0.19600
H3136       H  0.62254055  0.79138640  0.17819310     0.19600
C3137       C  0.57224945  0.51226370  0.82743477    -0.06300
C3138       C  0.55081480  0.48683445  0.81989244    -0.17400
C3139       C  0.56189608  0.46067492  0.80740678     0.10900
C3140       C  0.59186340  0.96130331  0.79988733    -0.06200
C3141       C  0.61517020  0.98317223  0.80862683    -0.17400
C3142       C  0.60582809  0.00806237  0.82245857     0.11000
S3143       S  0.53179979  0.43034637  0.79826842    -0.32400
S3144       S  0.63832688  0.03119789  0.83443509    -0.32400
H3145       H  0.66310118  0.52893155  0.82166633     0.29000
H3146       H  0.54165264  0.93286951  0.77677244     0.29000
H3147       H  0.52487964  0.48751616  0.82357275     0.19600
H3148       H  0.64100356  0.97996697  0.80510203     0.19600
C3149       C  0.57083417  0.72711822  0.82441586    -0.06300
C3150       C  0.54885864  0.74781417  0.81377080    -0.17400
C3151       C  0.55981144  0.77356701  0.80120118     0.10900
C3152       C  0.59386883  0.77928725  0.79909239    -0.06200
C3153       C  0.61616858  0.75811782  0.80919315    -0.17400
C3154       C  0.60500855  0.73240294  0.82202395     0.11000
S3155       S  0.52881011  0.79864231  0.78872688    -0.32400
S3156       S  0.63531978  0.70906459  0.83572865    -0.32400
H3157       H  0.61861493  0.71324161  0.85325405     0.29000
H3158       H  0.54768164  0.80758996  0.77260503     0.29000
H3159       H  0.52259341  0.74428373  0.81544105     0.19600
H3160       H  0.64237913  0.76234881  0.80744130     0.19600
C3161       C  0.91046744  0.51761893  0.82486229    -0.06300
C3162       C  0.87933406  0.50313866  0.82851238    -0.17400
C3163       C  0.87007906  0.97826824  0.81561554     0.10900
C3164       C  0.89053029  0.96280050  0.80149698    -0.06200
C3165       C  0.91690569  0.47787622  0.79794671    -0.17400
C3166       C  0.92909640  0.50512713  0.80916700     0.11000
S3167       S  0.82895432  0.96301737  0.82059683    -0.32400
S3168       S  0.96878503  0.52279017  0.80272262    -0.32400
H3169       H  0.96327124  0.55639505  0.81026391     0.29000
H3170       H  0.83393955  0.92822219  0.81487155     0.29000
H3171       H  0.86670202  0.01752808  0.83770487     0.19600
H3172       H  0.93153078  0.46828994  0.78603714     0.19600
C3173       C  0.91050913  0.72327698  0.82375526    -0.06300
C3174       C  0.88022126  0.73938156  0.82780616    -0.17400
C3175       C  0.86824605  0.76657972  0.81628014     0.10900
C3176       C  0.88709972  0.77804296  0.80045054    -0.06200
C3177       C  0.91694754  0.76126985  0.79617576    -0.17400
C3178       C  0.92879389  0.73408088  0.80760842     0.11000
S3179       S  0.82959628  0.78646010  0.82295597    -0.32400
S3180       S  0.96768656  0.71454455  0.80102520    -0.32400
H3181       H  0.96140630  0.68151926  0.80907399     0.29000
H3182       H  0.82031187  0.79695605  0.80449028     0.29000
H3183       H  0.86642864  0.73162138  0.84040934     0.19600
H3184       H  0.93128292  0.76971066  0.78390844     0.19600
C3185       C  0.65884091  0.78506761  0.04827903    -0.06300
C3186       C  0.65085476  0.82054665  0.04955821    -0.17400
C3187       C  0.62296562  0.83175994  0.05955961     0.10900
C3188       C  0.60322253  0.80698922  0.06931184    -0.06200
C3189       C  0.61268249  0.77163401  0.06910507    -0.17400
C3190       C  0.63994718  0.76026041  0.05845870     0.11000
S3191       S  0.61347249  0.87777823  0.05953838    -0.32400
S3192       S  0.64780868  0.71375800  0.05778317    -0.32400
H3193       H  0.67801294  0.71405296  0.04803879     0.29000
H3194       H  0.63452914  0.88749398  0.04442246     0.29000
H3195       H  0.66579786  0.83931645  0.04183778     0.19600
H3196       H  0.59781050  0.75239189  0.07650937     0.19600
C3197       C  0.88434507  0.79035592  0.07252346    -0.06300
C3198       C  0.88298246  0.75883797  0.06235085    -0.17400
C3199       C  0.85559798  0.75072099  0.05106610     0.10900
C3200       C  0.82965667  0.77528340  0.04938548    -0.06200
C3201       C  0.83030628  0.80576416  0.06054769    -0.17400
C3202       C  0.85689886  0.81293714  0.07251777     0.11000
S3203       S  0.85586146  0.70951770  0.03847494    -0.32400
S3204       S  0.85447332  0.85116743  0.08755593    -0.32400
H3205       H  0.87577903  0.83874703  0.10184885     0.29000
H3206       H  0.82148076  0.70616176  0.03713730     0.29000
H3207       H  0.90388007  0.74118708  0.06255360     0.19600
H3208       H  0.81021462  0.82437235  0.05966901     0.19600
C3209       C  0.59811070  0.71133694  0.93543274    -0.06300
C3210       C  0.60632067  0.74695761  0.93399504    -0.17400
C3211       C  0.63515249  0.76034893  0.94256046     0.10900
C3212       C  0.65607891  0.73790616  0.95319258    -0.06200
C3213       C  0.64765102  0.70257424  0.95470058    -0.17400
C3214       C  0.61922609  0.68920572  0.94615403     0.11000
S3215       S  0.64373154  0.80626205  0.93959468    -0.32400
S3216       S  0.61102228  0.64350881  0.95009590    -0.32400
H3217       H  0.57654651  0.64705915  0.95035665     0.29000
H3218       H  0.67781852  0.80398452  0.94274357     0.29000
H3219       H  0.59092127  0.76419337  0.92557780     0.19600
H3220       H  0.66292671  0.68533591  0.96322125     0.19600
C3221       C  0.88994674  0.71408781  0.93638009    -0.06300
C3222       C  0.87359782  0.74408383  0.92970124    -0.17400
C3223       C  0.84509543  0.75668617  0.93895543     0.10900
C3224       C  0.83198432  0.73812095  0.95473476    -0.06200
C3225       C  0.84887414  0.70863683  0.96153518    -0.17400
C3226       C  0.87778928  0.69691161  0.95280085     0.11000
S3227       S  0.82642009  0.79606550  0.92986252    -0.32400
S3228       S  0.89803709  0.65944233  0.96317418    -0.32400
H3229       H  0.92984840  0.66795422  0.95667737     0.29000
H3230       H  0.81332020  0.80770471  0.94737880     0.29000
H3231       H  0.88239826  0.75703272  0.91688152     0.19600
H3232       H  0.83971757  0.69501120  0.97407216     0.19600
C3233       C  0.59266377  0.97473262  0.07447076    -0.06300
C3234       C  0.59093582  0.99991297  0.05998681    -0.17400
C3235       C  0.61898652  0.00947967  0.04953965     0.10900
C3236       C  0.64916702  0.99174808  0.05274058    -0.06200
C3237       C  0.65121756  0.96830184  0.06819057    -0.17400
C3238       C  0.62358040  0.96067063  0.07950058     0.11000
S3239       S  0.62014945  0.55036526  0.03953697    -0.32400
S3240       S  0.62892582  0.93132109  0.09945861    -0.32400
H3241       H  0.60210181  0.94380168  0.11022751     0.29000
H3242       H  0.65394950  0.55825084  0.04008113     0.29000
H3243       H  0.56732766  0.01127332  0.05630667     0.19600
H3244       H  0.67413550  0.95477199  0.07102594     0.19600
C3245       C  0.87393509  0.96021508  0.07456107    -0.06300
C3246       C  0.85484768  0.93636609  0.06412909    -0.17400
C3247       C  0.82738491  0.94696315  0.05382302     0.10900
C3248       C  0.81918899  0.98275439  0.05306269    -0.06200
C3249       C  0.83725979  0.00676686  0.06397762    -0.17400
C3250       C  0.86414662  0.99574908  0.07504491     0.11000
S3251       S  0.80562477  0.91386304  0.04047078    -0.32400
S3252       S  0.88927269  0.52423681  0.08740285    -0.32400
H3253       H  0.88521813  0.50734289  0.10514360     0.29000
H3254       H  0.77458979  0.93003535  0.04153602     0.29000
H3255       H  0.86181016  0.90913736  0.06345161     0.19600
H3256       H  0.83377516  0.52975282  0.06281851     0.19600
C3257       C  0.64679152  0.51707475  0.96014804    -0.06300
C3258       C  0.62232216  0.53900686  0.96799647    -0.17400
C3259       C  0.59353860  0.54716606  0.95797783     0.10900
C3260       C  0.58926378  0.53461475  0.93919069    -0.06200
C3261       C  0.61318320  0.51213860  0.93137569    -0.17400
C3262       C  0.64132692  0.50243311  0.94181045     0.11000
S3263       S  0.56355734  0.57470769  0.96975717    -0.32400
S3264       S  0.66689931  0.96672910  0.92793616    -0.32400
H3265       H  0.67941911  0.95097489  0.94456325     0.29000
H3266       H  0.53649258  0.56475343  0.95853156     0.29000
H3267       H  0.62564786  0.54983098  0.98219712     0.19600
H3268       H  0.61037425  0.50286971  0.91681691     0.19600
C3269       C  0.82344734  0.52307535  0.95733679    -0.06300
C3270       C  0.83678254  0.49801589  0.94470350    -0.17400
C3271       C  0.86587858  0.50463888  0.93419719     0.10900
C3272       C  0.88253139  0.53682815  0.93656854    -0.06200
C3273       C  0.86919853  0.56149255  0.94933851    -0.17400
C3274       C  0.84031075  0.55505517  0.95973101     0.11000
S3275       S  0.87997448  0.47134932  0.91786373    -0.32400
S3276       S  0.82713844  0.58839731  0.97640895    -0.32400
H3277       H  0.79355586  0.57982655  0.97668112     0.29000
H3278       H  0.89108783  0.49447356  0.90362403     0.29000
H3279       H  0.82465087  0.47295568  0.94321669     0.19600
H3280       H  0.88129223  0.58651678  0.95103248     0.19600
C3281       C  0.66700414  0.51531047  0.68097114    -0.06300
C3282       C  0.68639867  0.51433828  0.69758150    -0.17400
C3283       C  0.68214086  0.48808100  0.71135996     0.10900
C3284       C  0.65185126  0.96099929  0.70620859    -0.06200
C3285       C  0.63321072  0.96250434  0.68936252    -0.17400
C3286       C  0.63948114  0.98813218  0.67544865     0.11000
S3287       S  0.70969013  0.48559411  0.73153778    -0.32400
S3288       S  0.61486657  0.98972501  0.65398743    -0.32400
H3289       H  0.59343851  0.46549546  0.66396263     0.29000
H3290       H  0.72625060  0.00777288  0.72439626     0.29000
H3291       H  0.70575228  0.53344962  0.69943930     0.19600
H3292       H  0.61378901  0.94355911  0.68721040     0.19600
C3293       C  0.65541781  0.78020569  0.70601966    -0.06300
C3294       C  0.63386733  0.77710434  0.69045470    -0.17400
C3295       C  0.63828677  0.75101253  0.67662211     0.10900
C3296       C  0.66519895  0.72787269  0.67820764    -0.06200
C3297       C  0.68675791  0.73107176  0.69380066    -0.17400
C3298       C  0.68216802  0.75685965  0.70769912     0.11000
S3299       S  0.60836343  0.74824660  0.65765384    -0.32400
S3300       S  0.71099756  0.75816808  0.72727854    -0.32400
H3301       H  0.70789019  0.79403627  0.73124541     0.29000
H3302       H  0.61319177  0.71277724  0.65320080     0.29000
H3303       H  0.61303264  0.79471599  0.68933221     0.19600
H3304       H  0.70775117  0.71369527  0.69502193     0.19600
C3305       C  0.84251384  0.96282734  0.70683421    -0.06300
C3306       C  0.81093658  0.96237047  0.69885278    -0.17400
C3307       C  0.79834988  0.48931046  0.68529683     0.10900
C3308       C  0.82082730  0.51603278  0.68027222    -0.06200
C3309       C  0.85453654  0.01566382  0.68874242    -0.17400
C3310       C  0.86458089  0.98991648  0.70176542     0.11000
S3311       S  0.75738522  0.48624010  0.67561285    -0.32400
S3312       S  0.90573968  0.99296489  0.71123835    -0.32400
H3313       H  0.91016503  0.95698507  0.71442965     0.29000
H3314       H  0.75160637  0.52244382  0.67548257     0.29000
H3315       H  0.79373117  0.94205742  0.70298903     0.19600
H3316       H  0.87157297  0.03617587  0.68468746     0.19600
C3317       C  0.82022805  0.73106114  0.67847299    -0.06300
C3318       C  0.79766361  0.75803506  0.68232128    -0.17400
C3319       C  0.80376659  0.78287517  0.69658129     0.10900
C3320       C  0.83376145  0.78175894  0.70677576    -0.06200
C3321       C  0.85622614  0.75463633  0.70296787    -0.17400
C3322       C  0.84968839  0.72923417  0.68904510     0.11000
S3323       S  0.77203890  0.81476957  0.70141419    -0.32400
S3324       S  0.87997037  0.69536442  0.68530403    -0.32400
H3325       H  0.87386646  0.69077876  0.66567119     0.29000
H3326       H  0.77844540  0.81752215  0.72111832     0.29000
H3327       H  0.77456925  0.75905665  0.67461118     0.19600
H3328       H  0.87918619  0.75348510  0.71079641     0.19600
C3329       C  0.67701098  0.98838261  0.32586794    -0.06300
C3330       C  0.65104626  0.01051690  0.33137659    -0.17400
C3331       C  0.63100624  0.53470649  0.31709059     0.10900
C3332       C  0.64709253  0.54005899  0.29935979    -0.06200
C3333       C  0.67467018  0.51960107  0.29472830    -0.17400
C3334       C  0.68981147  0.99111596  0.30703164     0.11000
S3335       S  0.59564821  0.55986785  0.32464563    -0.32400
S3336       S  0.72551828  0.96727013  0.29885655    -0.32400
H3337       H  0.74322327  0.97182540  0.31594762     0.29000
H3338       H  0.58482230  0.56977969  0.30636928     0.29000
H3339       H  0.64111389  0.00876208  0.34575955     0.19600
H3340       H  0.68751156  0.52415165  0.28133468     0.19600
C3341       C  0.65048519  0.72289870  0.29522953    -0.06300
C3342       C  0.68202587  0.73733708  0.29336284    -0.17400
C3343       C  0.69272905  0.76379246  0.30565910     0.10900
C3344       C  0.67113619  0.77660953  0.31997867    -0.06200
C3345       C  0.63938685  0.76264003  0.32155754    -0.17400
C3346       C  0.62878248  0.73597336  0.30935522     0.11000
S3347       S  0.73429239  0.77930831  0.30249270    -0.32400
S3348       S  0.58708602  0.72058680  0.31224203    -0.32400
H3349       H  0.59224609  0.68646395  0.30546751     0.29000
H3350       H  0.74109509  0.78290030  0.32208396     0.29000
H3351       H  0.69861398  0.72740916  0.28244666     0.19600
H3352       H  0.62282925  0.77233671  0.33255071     0.19600
C3353       C  0.84292736  0.53519284  0.30082765    -0.06300
C3354       C  0.86537759  0.50785099  0.30408819    -0.17400
C3355       C  0.86151165  0.98315352  0.31879642     0.10900
C3356       C  0.83292773  0.98366885  0.33028695    -0.06200
C3357       C  0.80903850  0.00965658  0.32723210    -0.17400
C3358       C  0.81346129  0.53653028  0.31160904     0.11000
S3359       S  0.89313445  0.95031869  0.32118221    -0.32400
S3360       S  0.78134936  0.56826008  0.30736685    -0.32400
H3361       H  0.78689979  0.57147932  0.28757922     0.29000
H3362       H  0.88804777  0.94375694  0.34076205     0.29000
H3363       H  0.88780983  0.50644490  0.29567214     0.19600
H3364       H  0.78654131  0.00956545  0.33562706     0.19600
C3365       C  0.82630308  0.76626196  0.32417945    -0.06300
C3366       C  0.80428197  0.73846357  0.32135273    -0.17400
C3367       C  0.80933263  0.71390065  0.30686159     0.10900
C3368       C  0.83827762  0.71554412  0.29564969    -0.06200
C3369       C  0.86017605  0.74351872  0.29827965    -0.17400
C3370       C  0.85432444  0.76908149  0.31226365     0.11000
S3371       S  0.77768985  0.68147285  0.30321555    -0.32400
S3372       S  0.88393509  0.80395812  0.31443501    -0.32400
H3373       H  0.87891963  0.81043946  0.33402463     0.29000
H3374       H  0.78355711  0.67681244  0.28353846     0.29000
H3375       H  0.78229267  0.73645054  0.33010600     0.19600
H3376       H  0.88230199  0.74504082  0.28960611     0.19600
C3377       C  0.58368329  0.72902809  0.54553665    -0.06300
C3378       C  0.60119494  0.69985317  0.53908555    -0.17400
C3379       C  0.62871459  0.68721656  0.54887279     0.10900
C3380       C  0.63892529  0.70396535  0.56607869    -0.06200
C3381       C  0.62091333  0.73317158  0.57259136    -0.17400
C3382       C  0.59378005  0.74610738  0.56239749     0.11000
S3383       S  0.65016415  0.65020769  0.53849251    -0.32400
S3384       S  0.57338120  0.78461825  0.57145134    -0.32400
H3385       H  0.56337068  0.79757046  0.55357142     0.29000
H3386       H  0.62940653  0.64457263  0.52272846     0.29000
H3387       H  0.59324884  0.68720522  0.52602937     0.19600
H3388       H  0.62819043  0.74647578  0.58556930     0.19600
C3389       C  0.91254696  0.71549576  0.54851386    -0.06300
C3390       C  0.90858611  0.72901528  0.56706794    -0.17400
C3391       C  0.88200004  0.71882666  0.57872043     0.10900
C3392       C  0.85732800  0.69659512  0.57120490    -0.06200
C3393       C  0.86245562  0.68191655  0.55294711    -0.17400
C3394       C  0.88999978  0.69022728  0.54187919     0.11000
S3395       S  0.88250206  0.73325779  0.60320691    -0.32400
S3396       S  0.89480100  0.66783810  0.51927487    -0.32400
H3397       H  0.92942385  0.66857597  0.51915249     0.29000
H3398       H  0.87224224  0.70077962  0.61056341     0.29000
H3399       H  0.92642106  0.74750627  0.57253276     0.19600
H3400       H  0.84480653  0.66365880  0.54706909     0.19600
C3401       C  0.63077785  0.79358564  0.42688018    -0.06300
C3402       C  0.62692061  0.75873578  0.43266644    -0.17400
C3403       C  0.60078575  0.74889135  0.44465165     0.10900
C3404       C  0.57792417  0.77442386  0.45085190    -0.06200
C3405       C  0.58076007  0.80880218  0.44416668    -0.17400
C3406       C  0.60683022  0.81863943  0.43225035     0.11000
S3407       S  0.59919341  0.70400762  0.45252365    -0.32400
S3408       S  0.60856805  0.86377989  0.42478967    -0.32400
H3409       H  0.62528715  0.85747295  0.40746586     0.29000
H3410       H  0.56512590  0.70286715  0.45601615     0.29000
H3411       H  0.64536200  0.73950014  0.42873000     0.19600
H3412       H  0.56308766  0.82835361  0.44878736     0.19600
C3413       C  0.90530771  0.76597266  0.45474544    -0.06300
C3414       C  0.90278022  0.79874687  0.44594260    -0.17400
C3415       C  0.87612314  0.80681991  0.43423538     0.10900
C3416       C  0.85089709  0.78192565  0.43162490    -0.06200
C3417       C  0.85418717  0.74849485  0.43959728    -0.17400
C3418       C  0.88132722  0.74014011  0.45103247     0.11000
S3419       S  0.87556587  0.84950065  0.42326044    -0.32400
S3420       S  0.88330525  0.69678452  0.46112898    -0.32400
H3421       H  0.91780276  0.69515019  0.46242919     0.29000
H3422       H  0.85659145  0.83986530  0.40731978     0.29000
H3423       H  0.92146362  0.81839483  0.44851453     0.19600
H3424       H  0.83484417  0.72935375  0.43761556     0.19600
C3425       C  0.58256393  0.52529077  0.54874813    -0.06300
C3426       C  0.58225280  0.55483141  0.56061395    -0.17400
C3427       C  0.60799517  0.56119787  0.57327131     0.10900
C3428       C  0.63493900  0.53788564  0.57384986    -0.06200
C3429       C  0.63450222  0.50743061  0.56275943    -0.17400
C3430       C  0.60847549  0.50075522  0.55025755     0.11000
S3431       S  0.60600908  0.60051187  0.58754257    -0.32400
S3432       S  0.60705393  0.95080584  0.54190600    -0.32400
H3433       H  0.57277905  0.94838917  0.53960236     0.29000
H3434       H  0.62697245  0.58860473  0.60213988     0.29000
H3435       H  0.56223218  0.57351110  0.55961024     0.19600
H3436       H  0.65551364  0.48992166  0.56291623     0.19600
C3437       C  0.90832808  0.52259792  0.54969945    -0.06300
C3438       C  0.88649813  0.49561764  0.55464274    -0.17400
C3439       C  0.85891999  0.50224545  0.56616861     0.10900
C3440       C  0.85353733  0.53642186  0.57309441    -0.06200
C3441       C  0.87685000  0.56260685  0.56931801    -0.17400
C3442       C  0.90389628  0.55625215  0.55753029     0.11000
S3443       S  0.83067511  0.46674796  0.57042136    -0.32400
S3444       S  0.93081527  0.59260443  0.55234346    -0.32400
H3445       H  0.93796410  0.58314992  0.53334668     0.29000
H3446       H  0.80175189  0.48674955  0.56892729     0.29000
H3447       H  0.89016623  0.46969026  0.54873714     0.19600
H3448       H  0.87283456  0.58892347  0.57463430     0.19600
C3449       C  0.64632984  0.96249012  0.43708752    -0.06300
C3450       C  0.62297660  0.98343866  0.42768355    -0.17400
C3451       C  0.59472811  0.99575021  0.43733378     0.10900
C3452       C  0.58871175  0.98503864  0.45644793    -0.06200
C3453       C  0.61245675  0.96463098  0.46573803    -0.17400
C3454       C  0.64169614  0.95512749  0.45677328     0.11000
S3455       S  0.56785861  0.02508984  0.42454938    -0.32400
S3456       S  0.67283930  0.93624174  0.47198577    -0.32400
H3457       H  0.69947575  0.95140612  0.46209944     0.29000
H3458       H  0.55384292  0.04114404  0.44073283     0.29000
H3459       H  0.62655811  0.98995048  0.41273247     0.19600
H3460       H  0.60873424  0.95713210  0.48055477     0.19600
C3461       C  0.91653022  0.96716336  0.45754195    -0.06300
C3462       C  0.90744386  0.98390358  0.44051724    -0.17400
C3463       C  0.87968669  0.97311622  0.43014818     0.10900
C3464       C  0.85968173  0.94553545  0.43723806    -0.06200
C3465       C  0.86981588  0.92823293  0.45401101    -0.17400
C3466       C  0.89802664  0.93824312  0.46394799     0.11000
S3467       S  0.87134103  0.99596129  0.40818640    -0.32400
S3468       S  0.90844073  0.91376593  0.48518691    -0.32400
H3469       H  0.94253044  0.91991134  0.48425485     0.29000
H3470       H  0.86859959  0.96501919  0.39739788     0.29000
H3471       H  0.92168650  0.00604047  0.43550052     0.19600
H3472       H  0.85562398  0.90678725  0.45977201     0.19600
loop_ 
_geom_bond_atom_site_label_1 
_geom_bond_atom_site_label_2 
_geom_bond_distance 
_geom_bond_site_symmetry_2 
_ccdc_geom_bond_type 
N1           H33   1.039       .  S
N1            C5   1.349       .  A
N1          C874   1.352       .  A
N2           C10   1.351   1_655  A
N2         C1745   1.351       .  A
N3           H34   1.041   1_545  S
N3            C8   1.352       .  A
N3          C875   1.352       .  A
N4           C12   1.347   1_655  A
N4         C1747   1.346       .  A
C5           C13   1.386       .  A
C5           C21   1.410       .  A
C6          N869   1.354   1_545  A
C6           C22   1.415       .  A
C6           C14   1.388       .  A
C7          N871   1.351       .  A
C7           C15   1.388       .  A
C7           C24   1.414       .  A
C8           C23   1.413       .  A
C8           C16   1.386       .  A
C9         N1738   1.350       .  A
C9           C21   1.410       .  A
C9           C17   1.386       .  A
C10          C24   1.414       .  A
C10          C18   1.387       .  A
C11        N1740   1.345       .  A
C11          C19   1.386       .  A
C11          C22   1.404       .  A
C12          C20   1.386       .  A
C12          C23   1.406       .  A
C13         C882   1.376       .  A
C13          H25   1.082       .  S
C14         C881   1.375       .  A
C14          H26   1.082       .  S
C15         C884   1.375       .  A
C15          H27   1.083       .  S
C16         C883   1.377       .  A
C16          H28   1.083       .  S
C17        C1754   1.379       .  A
C17          H29   1.082       .  S
C18        C1753   1.379   1_455  A
C18          H30   1.082       .  S
C19        C1756   1.375       .  A
C19          H31   1.082   1_545  S
C20        C1755   1.375   1_455  A
C20          H32   1.082       .  S
C21         C857   1.484       .  S
C22         C833   1.477       .  S
C23         C821   1.481       .  S
C24         C848   1.490       .  S
N35          H67   1.040       .  S
N35          C40   1.353       .  A
N35          C39   1.353       .  A
N36          C44   1.350       .  A
N36        C1779   1.350       .  A
N37          H68   1.040       .  S
N37          C42   1.353       .  A
N37          C41   1.350       .  A
N38          C46   1.349       .  A
N38        C1781   1.348       .  A
C39          C47   1.386       .  A
C39          C55   1.413       .  A
C40          C56   1.415       .  A
C40          C48   1.387       .  A
C41          C49   1.386       .  A
C41          C58   1.411       .  A
C42          C57   1.414       .  A
C42          C50   1.387       .  A
C43        N1772   1.351   1_455  A
C43          C55   1.411       .  A
C43          C51   1.385       .  A
C44          C58   1.409       .  A
C44          C52   1.386       .  A
C45        N1774   1.349   1_455  A
C45          C53   1.385       .  A
C45          C56   1.409       .  A
C46          C54   1.385       .  A
C46          C57   1.409       .  A
C47          C48   1.375       .  A
C47          H59   1.082       .  S
C48          H60   1.082       .  S
C49          C50   1.374       .  A
C49          H61   1.083       .  S
C50          H62   1.082       .  S
C51        C1788   1.375   1_455  A
C51          H63   1.082       .  S
C52        C1787   1.373       .  A
C52          H64   1.082       .  S
C53        C1790   1.373   1_455  A
C53          H65   1.082       .  S
C54        C1789   1.373       .  A
C54          H66   1.082       .  S
C55         C773   1.487       .  S
C56         C800   1.483       .  S
C57         C809   1.484       .  S
C58         C785   1.481       .  S
C69          N87   1.356       .  A
C69         C106   1.457       .  S
C69         C860   1.489       .  S
N70          N87   1.328       .  A
N70          N92   1.317       .  A
N70        Co107   2.095       .  S
C71          N96   1.347       .  A
C71         H116   1.081       .  S
C71         C109   1.464       .  S
H72         C113   1.081       .  S
C73          N97   1.343       .  A
C73         H102   1.082       .  S
C73          C77   1.465       .  S
Co74         N92   2.065       .  S
Co74         N82   2.075       .  S
Co74        N114   2.061       .  S
Co74         N90   2.068       .  S
Co74       Cl118   2.430       .  S
N75         C113   1.343       .  A
N75          N82   1.318       .  A
N75         Co76   2.082       .  S
Co76         N79   2.083       .  S
Co76         N96   2.093       .  S
Co76         N83   2.070       .  S
Co76       Cl118   2.458       .  S
C77         N115   1.350       .  A
C77         C761   1.478       .  S
N78          N85   1.319       .  A
N78         N108   1.324       .  A
N78        Co111   2.089       .  S
N79          N97   1.320       .  A
N79         N115   1.322       .  A
N80         C109   1.344       .  A
N80          N90   1.321       .  A
H81         C106   1.080       .  S
N82         N103   1.323       .  A
N83         N101   1.320       .  A
N83          N88   1.321       .  A
C84          N88   1.346       .  A
C84         C112   1.464       .  S
C84         C740   1.471       .  S
N85         C100   1.338       .  A
N85        Co107   2.080       .  S
C86         N114   1.329       .  A
C86         H120   1.079       .  S
C86          C89   1.451       .  S
C89         N110   1.357       .  A
C89         C845   1.481       .  S
N90          N96   1.318       .  A
N91         C117   1.343       .  A
N91          N93   1.322       .  A
N91        Co107   2.091       .  S
N92         C106   1.332       .  A
N93         N121   1.323       .  A
N93        Co111   2.091       .  S
H94         C117   1.082       .  S
H95         C112   1.082       .  S
N97        Co111   2.091       .  S
N98         N110   1.331       .  A
N98         N114   1.318       .  A
N98        Co107   2.099       .  S
C99         N103   1.346       .  A
C99         C113   1.458       .  S
C99         C812   1.469       .  S
C100        H104   1.082       .  S
C100        C119   1.462       .  S
N101        C112   1.341       .  A
N101       Co111   2.089       .  S
C105        N121   1.350       .  A
C105        C117   1.464       .  S
C105        C725   1.486       .  S
Co107      Cl118   2.465       .  S
N108        C119   1.352       .  A
C109        C797   1.474       .  S
Co111      Cl118   2.436       .  S
C119        C752   1.472       .  S
C122        N140   1.353       .  A
C122        C159   1.449       .  S
C122        C836   1.472       .  S
N123        N140   1.328       .  A
N123        N145   1.318       .  A
N123       Co160   2.091       .  S
C124        N149   1.349       .  A
C124        H169   1.081       .  S
C124        C162   1.476       .  S
H125        C166   1.079       .  S
C126        N150   1.340       .  A
C126        H155   1.082       .  S
C126        C130   1.460       .  S
Co127       N145   2.057       .  S
Co127       N135   2.061       .  S
Co127       N167   2.062       .  S
Co127       N143   2.069       .  S
Co127      Cl171   2.431       .  S
N128        C166   1.347       .  A
N128        N135   1.316       .  A
N128       Co129   2.091       .  S
Co129       N132   2.092       .  S
Co129       N149   2.106       .  S
Co129       N136   2.074       .  S
Co129      Cl171   2.468       .  S
C130        N168   1.353       .  A
C130        C713   1.475       .  S
N131        N138   1.319       .  A
N131        N161   1.326       .  A
N131       Co164   2.092       .  S
N132        N150   1.320       .  A
N132        N168   1.325       .  A
N133        C162   1.345       .  A
N133        N143   1.320       .  A
H134        C159   1.081       .  S
N135        N156   1.315       .  A
N136        N154   1.319       .  A
N136        N141   1.323       .  A
C137        N141   1.351       .  A
C137        C165   1.464       .  S
C137        C692   1.475       .  S
N138        C153   1.338       .  A
N138       Co160   2.079       .  S
C139        N167   1.331       .  A
C139        H173   1.078       .  S
C139        C142   1.448       .  S
C142        N163   1.352       .  A
C142        C824   1.465       .  S
N143        N149   1.317       .  A
N144        C170   1.340       .  A
N144        N146   1.318       .  A
N144       Co160   2.084       .  S
N145        C159   1.332       .  A
N146        N174   1.322       .  A
N146       Co164   2.077       .  S
H147        C170   1.082       .  S
H148        C165   1.082       .  S
N150       Co164   2.085       .  S
N151        N163   1.328       .  A
N151        N167   1.318       .  A
N151       Co160   2.089       .  S
C152        N156   1.345       .  A
C152        C166   1.474       .  S
C152        C788   1.487       .  S
C153        H157   1.082       .  S
C153        C172   1.461       .  S
N154        C165   1.336       .  A
N154       Co164   2.086       .  S
C158        N174   1.351       .  A
C158        C170   1.464       .  S
C158        C677   1.476       .  S
Co160      Cl171   2.455       .  S
N161        C172   1.353       .  A
C162        C776   1.497       .  S
Co164      Cl171   2.430       .  S
C172        C704   1.477       .  S
N175        H207   1.042       .  S
N175        C180   1.352       .  A
N175       C1047   1.352   1_554  A
N176        C183   1.354       .  A
N176        C184   1.355       .  A
N177        H208   1.040       .  S
N177        C182   1.355       .  A
N177       C1049   1.353   1_554  A
N178        C185   1.348       .  A
N178        C186   1.346       .  A
C179       N1043   1.350   1_556  A
C179        C187   1.387       .  A
C179        C195   1.412   1_565  A
C180        C196   1.415       .  A
C180        C188   1.387       .  A
C181       N1045   1.355   1_556  A
C181        C189   1.386   1_545  A
C181        C198   1.415       .  A
C182        C197   1.419       .  A
C182        C190   1.388       .  A
C183        C195   1.420       .  A
C183        C191   1.387       .  A
C184        C198   1.420       .  A
C184        C192   1.386       .  A
C185        C193   1.387       .  A
C185        C196   1.411       .  A
C186        C194   1.385       .  A
C186        C197   1.406       .  A
C187       C1056   1.375   1_556  A
C187        H199   1.083       .  S
C188       C1055   1.375   1_554  A
C188        H200   1.082       .  S
C189       C1058   1.373   1_556  A
C189        H201   1.082       .  S
C190       C1057   1.376   1_554  A
C190        H202   1.082       .  S
C191        C192   1.382       .  A
C191        H203   1.082       .  S
C192        H204   1.082       .  S
C193        C194   1.378       .  A
C193        H205   1.082       .  S
C194        H206   1.082       .  S
C195        C653   1.497       .  S
C196        C632   1.494       .  S
C197        C644   1.484       .  S
C198        C665   1.498       .  S
N209        H241   1.039       .  S
N209        C214   1.351   1_554  A
N209        C213   1.354       .  A
N210        C217   1.350       .  A
N210        C218   1.348       .  A
N211        H242   1.039       .  S
N211        C216   1.354       .  A
N211        C215   1.353   1_556  A
N212        C219   1.354       .  A
N212        C220   1.356       .  A
C213        C221   1.387       .  A
C213        C229   1.417       .  A
C214        C230   1.412       .  A
C214        C222   1.386       .  A
C215        C223   1.388       .  A
C215        C232   1.417       .  A
C216        C231   1.412       .  A
C216        C224   1.386       .  A
C217        C229   1.413       .  A
C217        C225   1.386       .  A
C218        C232   1.409       .  A
C218        C226   1.386       .  A
C219        C227   1.386       .  A
C219        C230   1.420       .  A
C220        C228   1.385       .  A
C220        C231   1.420       .  A
C221        C222   1.376   1_554  A
C221        H233   1.082       .  S
C222        H234   1.082       .  S
C223        C224   1.373   1_554  A
C223        H235   1.082       .  S
C224        H236   1.082       .  S
C225        C226   1.377       .  A
C225        H237   1.082       .  S
C226        H238   1.082       .  S
C227        C228   1.382       .  A
C227        H239   1.082       .  S
C228        H240   1.082       .  S
C229        C596   1.494       .  S
C230        C620   1.492       .  S
C231        C608   1.499       .  S
C232        C581   1.480       .  S
C243        N261   1.340       .  A
C243        C280   1.480       .  S
C243        C668   1.489       .  S
N244        N261   1.318       .  A
N244        N266   1.322       .  A
N244       Co281   2.067       .  S
C245        N270   1.349       .  A
C245        H290   1.080       .  S
C245        C283   1.475       .  S
H246        C287   1.081       .  S
C247        N271   1.358       .  A
C247        H276   1.081       .  S
C247        C251   1.482       .  S
Co248       N266   2.123       .  S
Co248       N288   2.073       .  S
Co248      N1992   2.110       .  S
Co248      N2000   2.081       .  S
Co248      Cl292   2.468       .  S
N249        C287   1.332       .  A
N249        N256   1.323       .  A
N249       Co250   2.078       .  S
Co250       N253   2.070       .  S
Co250       N270   2.099       .  S
Co250       N257   2.116       .  S
Co250     Cl2028   2.445   1_455  S
C251        N289   1.340       .  A
C251        C605   1.494       .  S
N252        N259   1.322       .  A
N252        N282   1.334       .  A
N252       Co285   2.115       .  S
N253        N271   1.322       .  A
N253        N289   1.320       .  A
N254        C283   1.345       .  A
N254        N264   1.319       .  A
H255        C280   1.081       .  S
N256        N277   1.331       .  A
N256      Co1984   2.105   1_455  S
N257        N275   1.320       .  A
N257        N262   1.335       .  A
C258        N262   1.363       .  A
C258        C286   1.446       .  S
C258        C545   1.487       .  S
N259        C274   1.333       .  A
N259       Co281   2.073       .  S
C260        N288   1.334       .  A
C260        H294   1.082       .  S
C260        C263   1.446       .  S
C263        N284   1.357       .  A
C263        C557   1.476       .  S
N264        N270   1.320       .  A
N264      Co1984   2.077   1_455  S
N265        C291   1.348       .  A
N265        N267   1.321       .  A
N265       Co281   2.100       .  S
N266        C280   1.356       .  A
N267        N295   1.321       .  A
N267       Co285   2.079       .  S
H268        C291   1.081       .  S
H269        C286   1.082       .  S
N271      Co2021   2.134   1_455  S
N272        N284   1.332       .  A
N272        N288   1.322       .  A
N272       Co281   2.108       .  S
C273        N277   1.358       .  A
C273        C287   1.444       .  S
C273        C656   1.471       .  S
C274        H278   1.082       .  S
C274        C293   1.445       .  S
N275        C286   1.326       .  A
N275      Co2021   2.060   1_455  S
C279        N295   1.344       .  A
C279        C291   1.468       .  S
C279        C569   1.476       .  S
Co281      Cl292   2.446       .  S
N282        C293   1.360       .  A
C283        C533   1.491       .  S
Co285      N2007   2.122       .  S
Co285      N2011   2.065       .  S
Co285      Cl292   2.465       .  S
Cl292     Co1986   2.445       .  S
C293        C617   1.480       .  S
N296        H328   1.040       .  S
N296        C301   1.351       .  A
N296        C300   1.351       .  A
N297        C304   1.352       .  A
N297        C305   1.351       .  A
N298        H329   1.037       .  S
N298        C303   1.356       .  A
N298        C302   1.355       .  A
N299        C306   1.352       .  A
N299        C307   1.353       .  A
C300        C308   1.386       .  A
C300        C316   1.411       .  A
C301        C317   1.412       .  A
C301        C309   1.388       .  A
C302        C310   1.387       .  A
C302        C319   1.423       .  A
C303        C318   1.424       .  A
C303        C311   1.387       .  A
C304        C316   1.412       .  A
C304        C312   1.385       .  A
C305        C319   1.414       .  A
C305        C313   1.388       .  A
C306        C314   1.386       .  A
C306        C317   1.415       .  A
C307        C315   1.387       .  A
C307        C318   1.417       .  A
C308        C309   1.375       .  A
C308        H320   1.083       .  S
C309        H321   1.083       .  S
C310        C311   1.380       .  A
C310        H322   1.082       .  S
C311        H323   1.082       .  S
C312        C313   1.369       .  A
C312        H324   1.082       .  S
C313        H325   1.082       .  S
C314        C315   1.373       .  A
C314       H1194   1.082       .  S
C315       H1195   1.082       .  S
C316        C689   1.486       .  S
C317        C680   1.485       .  S
C318        C536   1.498       .  S
C319        C548   1.488       .  S
H326       C1182   1.082       .  S
H327       C1183   1.082       .  S
N330        H362   1.038       .  S
N330        C335   1.353       .  A
N330        C334   1.353       .  A
N331        C338   1.354       .  A
N331        C339   1.353       .  A
N332        H363   1.038       .  S
N332        C337   1.355       .  A
N332        C336   1.351       .  A
N333        C340   1.350       .  A
N333        C341   1.351       .  A
C334        C342   1.386       .  A
C334        C350   1.413       .  A
C335        C351   1.415       .  A
C335        C343   1.388       .  A
C336        C344   1.387       .  A
C336        C353   1.414       .  A
C337        C352   1.416       .  A
C337        C345   1.387       .  A
C338        C350   1.417       .  A
C338        C346   1.386       .  A
C339        C353   1.417       .  A
C339        C347   1.386       .  A
C340        C348   1.387       .  A
C340        C351   1.413       .  A
C341        C349   1.386       .  A
C341        C352   1.413       .  A
C342        C343   1.375       .  A
C342       H1222   1.082       .  S
C343       H1223   1.082       .  S
C344        C345   1.375       .  A
C344        H356   1.082       .  S
C345        H357   1.082       .  S
C346        C347   1.377       .  A
C346        H358   1.082       .  S
C347        H359   1.082       .  S
C348        C349   1.373       .  A
C348        H360   1.082       .  S
C349        H361   1.082       .  S
C350        C560   1.490       .  S
C351        C701   1.486       .  S
C352        C716   1.492       .  S
C353        C572   1.487       .  S
H354       C1210   1.082   1_545  S
H355       C1211   1.082   1_545  S
N364        H396   1.037       .  S
N364        C369   1.352       .  A
N364        C368   1.354       .  A
N365        C372   1.351       .  A
N365        C373   1.350       .  A
N366        H397   1.038       .  S
N366        C371   1.352       .  A
N366        C370   1.352       .  A
N367        C374   1.351       .  A
N367        C375   1.352       .  A
C368        C376   1.387       .  A
C368        C384   1.417       .  A
C369        C385   1.415       .  A
C369        C377   1.387       .  A
C370        C378   1.387       .  A
C370        C387   1.412       .  A
C371        C386   1.414       .  A
C371        C379   1.388       .  A
C372        C384   1.413       .  A
C372        C380   1.386       .  A
C373        C387   1.410       .  A
C373        C381   1.386       .  A
C374        C382   1.387       .  A
C374        C385   1.414       .  A
C375        C383   1.386       .  A
C375        C386   1.413       .  A
C376        C377   1.376       .  A
C376        H388   1.082       .  S
C377        H389   1.082       .  S
C378        C379   1.376       .  A
C378        H390   1.082       .  S
C379        H391   1.082       .  S
C380        C381   1.371       .  A
C380        H392   1.082       .  S
C381        H393   1.082       .  S
C382        C383   1.374       .  A
C382       H1262   1.082   1_545  S
C383       H1263   1.082   1_545  S
C384        C521   1.493       .  S
C385        C509   1.487       .  S
C386        C728   1.486       .  S
C387        C737   1.481       .  S
H394       C1250   1.082       .  S
H395       C1251   1.082       .  S
N398        H430   1.037       .  S
N398        C403   1.353       .  A
N398        C402   1.352       .  A
N399        C406   1.350       .  A
N399        C407   1.351       .  A
N400        H431   1.036       .  S
N400        C405   1.354       .  A
N400        C404   1.353       .  A
N401        C408   1.351       .  A
N401        C409   1.351       .  A
C402        C410   1.386       .  A
C402        C418   1.411       .  A
C403        C419   1.414       .  A
C403        C411   1.387       .  A
C404        C412   1.386       .  A
C404        C421   1.416       .  A
C405        C420   1.417       .  A
C405        C413   1.387       .  A
C406        C418   1.411       .  A
C406        C414   1.386       .  A
C407        C421   1.412       .  A
C407        C415   1.386       .  A
C408        C416   1.385       .  A
C408        C419   1.412       .  A
C409        C417   1.388       .  A
C409        C420   1.416       .  A
C410        C411   1.374       .  A
C410       H1290   1.082   1_545  S
C411       H1291   1.082   1_545  S
C412        C413   1.377       .  A
C412        H424   1.082       .  S
C413        H425   1.082       .  S
C414        C415   1.373       .  A
C414        H426   1.082       .  S
C415        H427   1.082       .  S
C416        C417   1.374       .  A
C416        H428   1.082       .  S
C417        H429   1.082       .  S
C418        C488   1.483       .  S
C419        C749   1.488       .  S
C420        C764   1.492       .  S
C421        C497   1.490       .  S
H422       C1278   1.082       .  S
H423       C1279   1.082       .  S
C432        N450   1.353       .  A
C432        C469   1.454       .  S
C432        C641   1.480       .  S
N433        N450   1.329       .  A
N433        N455   1.318       .  A
N433       Co470   2.092       .  S
C434       N2195   1.345       .  A
C434        H479   1.081       .  S
C434        C472   1.464       .  S
H435        C476   1.081       .  S
C436        N460   1.337       .  A
C436        H465   1.081       .  S
C436        C440   1.460       .  S
Co437       N455   2.067       .  S
Co437       N445   2.085       .  S
Co437       N477   2.088       .  S
Co437       N453   2.075       .  S
Co437      Cl481   2.443       .  S
N438        C476   1.346       .  A
N438        N445   1.320       .  A
N438       Co439   2.090       .  S
Co439       N442   2.100       .  S
Co439       N459   2.107       .  S
Co439      N2182   2.073       .  S
Co439      Cl481   2.460       .  S
C440        N478   1.355       .  A
C440        C500   1.485       .  S
N441        N448   1.317       .  A
N441        N471   1.325       .  A
N441       Co474   2.092       .  S
N442        N460   1.321       .  A
N442        N478   1.327       .  A
N443        C472   1.347       .  A
N443       N2189   1.321       .  A
H444        C469   1.081       .  S
N445        N466   1.323       .  A
N446        N464   1.321       .  A
N446        N451   1.323       .  A
N446      Co2175   2.078   1_455  S
C447        N451   1.349       .  A
C447        C475   1.465       .  S
C447        C524   1.477       .  S
N448        C463   1.334       .  A
N448       Co470   2.062       .  S
C449       N2213   1.337       .  A
C449        H483   1.080       .  S
C449        C452   1.454       .  S
C452        N473   1.348       .  A
C452        C629   1.466       .  S
N453        N459   1.320       .  A
N453       N2179   1.322       .  A
N454        C480   1.336       .  A
N454        N456   1.319       .  A
N454      Co2206   2.076   1_455  S
N455        C469   1.334       .  A
N456        N484   1.324       .  A
N456      Co2210   2.082   1_455  S
H457        C480   1.082       .  S
H458        C475   1.082       .  S
N459       C2170   1.348       .  A
N460       Co474   2.083       .  S
N461        N477   1.318       .  A
N461       N2209   1.327       .  A
N461       Co470   2.073       .  S
C462        N466   1.347       .  A
C462        C476   1.460       .  S
C462        C593   1.473       .  S
C463        H467   1.082       .  S
C463        C482   1.457       .  S
N464        C475   1.343       .  A
N464      Co2210   2.099   1_455  S
C468        N484   1.351       .  A
C468        C480   1.459       .  S
C468        C512   1.469       .  S
Co470      N2190   2.079       .  S
Co470      Cl481   2.448       .  S
N471        C482   1.356       .  A
C472        C584   1.479       .  S
N473       N2197   1.326       .  A
Co474      N2192   2.094       .  S
Co474      N2200   2.099       .  S
Co474      Cl481   2.445       .  S
N477       C2185   1.338       .  A
C482        C485   1.475       .  S
C485        C486   1.403       .  A
C485        C490   1.416       .  A
C486       C1355   1.397       .  A
C486        H495   1.084       .  S
C487        C488   1.411       .  A
C487       C1354   1.398   1_545  A
C487        S491   1.804       .  S
C488        C489   1.402       .  A
C489       C1358   1.397   1_545  A
C489        H496   1.084       .  S
C490       C1357   1.399       .  A
C490        S492   1.805       .  S
S491        H494   1.406       .  S
S492        H493   1.406       .  S
C497        C498   1.399       .  A
C497        C502   1.414       .  A
C498        C499   1.399       .  A
C498        H507   1.083       .  S
C499        C500   1.419       .  A
C499        S503   1.810       .  S
C500        C501   1.405       .  A
C501        C502   1.404       .  A
C501        H508   1.084       .  S
C502        S504   1.804       .  S
S503        H506   1.406       .  S
S504        H505   1.406       .  S
C509        C510   1.404       .  A
C509        C514   1.413       .  A
C510        C511   1.401   1_545  A
C510        H519   1.084       .  S
C511       C1380   1.410       .  A
C511        S515   1.803       .  S
C512        C513   1.404       .  A
C512       C1379   1.408       .  A
C513       C1382   1.397       .  A
C513        H520   1.084       .  S
C514       C1381   1.399       .  A
C514       S1384   1.805       .  S
S515       H1386   1.405       .  S
S516       C1382   1.805       .  S
S516       H1385   1.406       .  S
H517       S1384   1.406       .  S
H518       S1383   1.406       .  S
C521        C522   1.402       .  A
C521        C526   1.415       .  A
C522        C523   1.398       .  A
C522        H531   1.084       .  S
C523        C524   1.416       .  A
C523        S527   1.804       .  S
C524        C525   1.402       .  A
C525        C526   1.402       .  A
C525        H532   1.084       .  S
C526        S528   1.804       .  S
S527        H530   1.403       .  S
S528        H529   1.406       .  S
C533        C534   1.408   1_545  A
C533       C1406   1.415       .  A
C534        C535   1.397       .  A
C534        H543   1.083       .  S
C535       C1404   1.409       .  A
C535        S539   1.807       .  S
C536        C537   1.406       .  A
C536       C1403   1.410       .  A
C537        C538   1.413       .  A
C537        H544   1.083       .  S
C538       C1401   1.416       .  A
C538        S540   1.805       .  S
S539       H1410   1.404       .  S
S540       H1409   1.407       .  S
H541       S1408   1.407       .  S
H542       S1407   1.405       .  S
C545        C546   1.407       .  A
C545        C550   1.414       .  A
C546        C547   1.391       .  A
C546        H555   1.081       .  S
C547        C548   1.407       .  A
C547        S551   1.805       .  S
C548        C549   1.408       .  A
C549        C550   1.409       .  A
C549        H556   1.083       .  S
C550        S552   1.799       .  S
S551        H554   1.404       .  S
S552        H553   1.407       .  S
C557        C558   1.404       .  A
C557        C562   1.412       .  A
C558       C1427   1.407   1_545  A
C558       H1435   1.084       .  S
C559        C560   1.415       .  A
C559       C1426   1.407       .  A
C559        S563   1.804       .  S
C560       C1429   1.401       .  A
C561        C562   1.397   1_565  A
C561       C1428   1.402       .  A
C561        H568   1.084       .  S
C562        S564   1.805       .  S
S563        H566   1.404       .  S
S564        H565   1.406       .  S
H567       C1426   1.084       .  S
C569        C570   1.404       .  A
C569        C574   1.412       .  A
C570        C571   1.405       .  A
C570        H579   1.084       .  S
C571        C572   1.414       .  A
C571        S575   1.804       .  S
C572        C573   1.401       .  A
C573        C574   1.397       .  A
C573        H580   1.084       .  S
C574        S576   1.801       .  S
S575        H578   1.404       .  S
S576        H577   1.406       .  S
C581        C582   1.396       .  A
C581        C586   1.412       .  A
C582        C583   1.395       .  A
C582        H591   1.083       .  S
C583        C584   1.414       .  A
C583        S587   1.802       .  S
C584        C585   1.405       .  A
C585        C586   1.403       .  A
C585        H592   1.084       .  S
C586        S588   1.803       .  S
S587        H590   1.407       .  S
S588        H589   1.404       .  S
C593        C594   1.400       .  A
C593        C598   1.410       .  A
C594        C595   1.401       .  A
C594        H603   1.084       .  S
C595        C596   1.417       .  A
C595        S599   1.805       .  S
C596        C597   1.405       .  A
C597        C598   1.401       .  A
C597        H604   1.084       .  S
C598        S600   1.802       .  S
S599        H602   1.406       .  S
S600        H601   1.406       .  S
C605        C606   1.407       .  A
C605        C610   1.418       .  A
C606        C607   1.414       .  A
C606        H615   1.083       .  S
C607        C608   1.417       .  A
C607        S611   1.802       .  S
C608        C609   1.399       .  A
C609        C610   1.399       .  A
C609        H616   1.084       .  S
C610        S612   1.802       .  S
S611        H614   1.405       .  S
S612        H613   1.407       .  S
C617        C618   1.406       .  A
C617        C622   1.412       .  A
C618        C619   1.410       .  A
C618        H627   1.084       .  S
C619        C620   1.417       .  A
C619        S623   1.806       .  S
C620        C621   1.402       .  A
C621        C622   1.396       .  A
C621        H628   1.084       .  S
C622        S624   1.804       .  S
S623        H626   1.403       .  S
S624        H625   1.407       .  S
C629        C630   1.398       .  A
C629        C634   1.409       .  A
C630        C631   1.397       .  A
C630        H639   1.084       .  S
C631        C632   1.418       .  A
C631       S1503   1.806       .  S
C632        C633   1.406       .  A
C633        C634   1.400       .  A
C633        H640   1.083       .  S
C634        S636   1.804       .  S
S635       C1499   1.804       .  S
S635        H638   1.406       .  S
S636        H637   1.405       .  S
C641        C642   1.403       .  A
C641        C646   1.413       .  A
C642        C643   1.392       .  A
C642        H651   1.079       .  S
C643        C644   1.409       .  A
C643        S647   1.805       .  S
C644        C645   1.405       .  A
C645        C646   1.405       .  A
C645       H1520   1.084       .  S
C646       S1516   1.798       .  S
S647        H650   1.404       .  S
S648       C1514   1.797   1_545  S
S648        H649   1.407       .  S
H652       C1513   1.084       .  S
C653        C654   1.407       .  A
C653        C658   1.415   1_545  A
C654        C655   1.396       .  A
C654        H663   1.084       .  S
C655        C656   1.408       .  A
C655        S659   1.806       .  S
C656        C657   1.405       .  A
C657        C658   1.406   1_545  A
C657        H664   1.084       .  S
C658       S1528   1.803       .  S
S659        H662   1.405       .  S
S660       C1526   1.802       .  S
S660        H661   1.406       .  S
C665        C666   1.410   1_545  A
C665        C670   1.411       .  A
C666        C667   1.412   1_565  A
C666        H675   1.083       .  S
C667        C668   1.416       .  A
C667        S671   1.800   1_545  S
C668        C669   1.405       .  A
C669        C670   1.398       .  A
C669        H676   1.084       .  S
C670        S672   1.803       .  S
S671        H674   1.406       .  S
S672        H673   1.402       .  S
C677        C678   1.406       .  A
C677       C1550   1.409   1_545  A
C678        C679   1.401   1_545  A
C678        H687   1.082       .  S
C679       C1548   1.408       .  A
C679        S683   1.807       .  S
C680        C681   1.404       .  A
C680       C1547   1.407       .  A
C681        C682   1.405       .  A
C681        H688   1.083       .  S
C682       C1545   1.411       .  A
C682        S684   1.806       .  S
S683       H1554   1.407   1_565  S
S684       H1553   1.407       .  S
H685       S1552   1.407       .  S
H686       S1551   1.407       .  S
C689        C690   1.405       .  A
C689        C694   1.411       .  A
C690        C691   1.400       .  A
C690        H699   1.084       .  S
C691        C692   1.411       .  A
C691        S695   1.805       .  S
C692        C693   1.406       .  A
C693        C694   1.394       .  A
C693        H700   1.083       .  S
C694        S696   1.805       .  S
S695        H698   1.406       .  S
S696        H697   1.405       .  S
C701        C702   1.401       .  A
C701        C706   1.413       .  A
C702       C1571   1.396       .  A
C702        H711   1.084       .  S
C703        C704   1.416   1_565  A
C703       C1570   1.396       .  A
C703        S707   1.802       .  S
C704       C1573   1.402       .  A
C705        C706   1.401       .  A
C705       C1572   1.401       .  A
C705        H712   1.084       .  S
C706        S708   1.804       .  S
S707        H710   1.404   1_565  S
S708        H709   1.406       .  S
C713        C714   1.403       .  A
C713        C718   1.413       .  A
C714        C715   1.399       .  A
C714        H723   1.084       .  S
C715        C716   1.413       .  A
C715        S719   1.804       .  S
C716        C717   1.404       .  A
C717        C718   1.403       .  A
C717        H724   1.084       .  S
C718        S720   1.805       .  S
S719        H722   1.406       .  S
S720        H721   1.405       .  S
C725        C726   1.405       .  A
C725        C730   1.418       .  A
C726       C1595   1.403       .  A
C726        H735   1.084       .  S
C727        C728   1.413       .  A
C727       C1594   1.401       .  A
C727        S731   1.803       .  S
C728        C729   1.400       .  A
C729       C1598   1.398   1_545  A
C729        H736   1.084       .  S
C730       C1597   1.399       .  A
C730        S732   1.802       .  S
S731        H734   1.406       .  S
S732        H733   1.408       .  S
C737        C738   1.401       .  A
C737        C742   1.412       .  A
C738        C739   1.398       .  A
C738        H747   1.084       .  S
C739        C740   1.416       .  A
C739        S743   1.803       .  S
C740        C741   1.401       .  A
C741        C742   1.398       .  A
C741        H748   1.084       .  S
C742        S744   1.805       .  S
S743        H746   1.405       .  S
S744        H745   1.404       .  S
C749        C750   1.405       .  A
C749        C754   1.413       .  A
C750       C1619   1.401   1_545  A
C750        H759   1.084       .  S
C751        C752   1.410       .  A
C751       C1618   1.402       .  A
C751        S755   1.803       .  S
C752        C753   1.403       .  A
C753       C1622   1.396       .  A
C753        H760   1.084       .  S
C754       C1621   1.398       .  A
C754        S756   1.805       .  S
S755        H758   1.406       .  S
S756        H757   1.406       .  S
C761        C762   1.404       .  A
C761        C766   1.412       .  A
C762        C763   1.397       .  A
C762        H771   1.084       .  S
C763        C764   1.413       .  A
C763        S767   1.806       .  S
C764        C765   1.406       .  A
C765        C766   1.403       .  A
C765        H772   1.084       .  S
C766        S768   1.804       .  S
S767        H770   1.406       .  S
S768        H769   1.406       .  S
C773        C774   1.396       .  A
C773        C778   1.410       .  A
C774        C775   1.400       .  A
C774        H783   1.083       .  S
C775        C776   1.426       .  A
C775        S779   1.808       .  S
C776        C777   1.409       .  A
C777        C778   1.404       .  A
C777        H784   1.082       .  S
C778        S780   1.803       .  S
S779        H782   1.407       .  S
S780        H781   1.405       .  S
C785        C786   1.403       .  A
C785        C790   1.408       .  A
C786        C787   1.403       .  A
C786        H795   1.084       .  S
C787        C788   1.418       .  A
C787        S791   1.797       .  S
C788        C789   1.409       .  A
C789        C790   1.389       .  A
C789        H796   1.083       .  S
C790        S792   1.807       .  S
S791        H794   1.408       .  S
S792        H793   1.406       .  S
C797        C798   1.402       .  A
C797        C802   1.415       .  A
C798        C799   1.401       .  A
C798        H807   1.084       .  S
C799        C800   1.412       .  A
C799        S803   1.802       .  S
C800        C801   1.399       .  A
C801        C802   1.396       .  A
C801        H808   1.084       .  S
C802        S804   1.804       .  S
S803        H806   1.405       .  S
S804        H805   1.407       .  S
C809        C810   1.402       .  A
C809        C814   1.412       .  A
C810        C811   1.398       .  A
C810        H819   1.084       .  S
C811        C812   1.413       .  A
C811        S815   1.804       .  S
C812        C813   1.401       .  A
C813        C814   1.399       .  A
C813        H820   1.084       .  S
C814        S816   1.803       .  S
S815        H818   1.406       .  S
S816        H817   1.406       .  S
C821        C822   1.401       .  A
C821        C826   1.413   1_545  A
C822        C823   1.397       .  A
C822        H831   1.084       .  S
C823        C824   1.413       .  A
C823        S827   1.805       .  S
C824        C825   1.399       .  A
C825        C826   1.398   1_545  A
C825        H832   1.084   1_545  S
C826       S1696   1.804       .  S
S827        H830   1.407       .  S
S828       C1694   1.804       .  S
S828        H829   1.406       .  S
C833        C834   1.403   1_545  A
C833        C838   1.412       .  A
C834        C835   1.400   1_565  A
C834        H843   1.084       .  S
C835        C836   1.410       .  A
C835        S839   1.798   1_545  S
C836        C837   1.404       .  A
C837        C838   1.393       .  A
C837        H844   1.084       .  S
C838        S840   1.809       .  S
S839        H842   1.406       .  S
S840        H841   1.402       .  S
C845        C846   1.407       .  A
C845        C850   1.416       .  A
C846        C847   1.408       .  A
C846        H855   1.083       .  S
C847        C848   1.415       .  A
C847        S851   1.802       .  S
C848        C849   1.400       .  A
C849        C850   1.387       .  A
C849        H856   1.085       .  S
C850        S852   1.805       .  S
S851        H854   1.406       .  S
S852        H853   1.407       .  S
C857        C858   1.402       .  A
C857        C862   1.410       .  A
C858        C859   1.404       .  A
C858        H867   1.084       .  S
C859        C860   1.418       .  A
C859        S863   1.799       .  S
C860        C861   1.407       .  A
C861        C862   1.392       .  A
C861        H868   1.080       .  S
C862        S864   1.806       .  S
S863        H866   1.408       .  S
S864        H865   1.406       .  S
N869        H901   1.039       .  S
N869        C873   1.350       .  A
N870       C2613   1.352   1_455  A
N870        C878   1.354       .  A
N871        H902   1.038       .  S
N871        C876   1.353       .  A
N872       C2615   1.345       .  A
N872        C880   1.347   1_655  A
C873        C881   1.386   1_565  A
C873        C889   1.411       .  A
C874        C890   1.413       .  A
C874        C882   1.387       .  A
C875        C883   1.389       .  A
C875        C892   1.418       .  A
C876        C891   1.412       .  A
C876        C884   1.386       .  A
C877       N2606   1.350       .  A
C877        C889   1.411       .  A
C877        C885   1.385       .  A
C878        C892   1.418   1_565  A
C878        C886   1.387       .  A
C879       N2608   1.344       .  A
C879        C887   1.386       .  A
C879        C890   1.403       .  A
C880        C888   1.386       .  A
C880        C891   1.406       .  A
C881        H893   1.082       .  S
C882        H894   1.082       .  S
C883        H895   1.082       .  S
C884        H896   1.082       .  S
C885       C2622   1.378       .  A
C885        H897   1.082       .  S
C886       C2621   1.378   1_455  A
C886        H898   1.082       .  S
C887       C2624   1.374       .  A
C887        H899   1.082       .  S
C888       C2623   1.374   1_455  A
C888        H900   1.082       .  S
C889       C1725   1.483       .  S
C890       C1701   1.476       .  S
C891       C1689   1.482       .  S
C892       C1716   1.501   1_545  S
N903        H935   1.039       .  S
N903        C908   1.353       .  A
N903        C907   1.351       .  A
N904       C2647   1.351       .  A
N904        C912   1.351       .  A
N905        H936   1.037       .  S
N905        C910   1.353       .  A
N905        C909   1.351       .  A
N906       C2649   1.349       .  A
N906        C914   1.349       .  A
C907        C915   1.387       .  A
C907        C923   1.414       .  A
C908        C924   1.413       .  A
C908        C916   1.387       .  A
C909        C917   1.386       .  A
C909        C926   1.412       .  A
C910        C925   1.414       .  A
C910        C918   1.387       .  A
C911       N2640   1.351   1_455  A
C911        C923   1.414       .  A
C911        C919   1.386       .  A
C912        C926   1.412       .  A
C912        C920   1.386       .  A
C913       N2642   1.348   1_455  A
C913        C921   1.386       .  A
C913        C924   1.406       .  A
C914        C922   1.386       .  A
C914        C925   1.410       .  A
C915        C916   1.375       .  A
C915        H927   1.083       .  S
C916        H928   1.082       .  S
C917        C918   1.373       .  A
C917        H929   1.082       .  S
C918        H930   1.082       .  S
C919       C2656   1.377   1_455  A
C919        H931   1.082       .  S
C920       C2655   1.376       .  A
C920        H932   1.082       .  S
C921       C2658   1.373   1_455  A
C921        H933   1.082       .  S
C922       C2657   1.374       .  A
C922        H934   1.082       .  S
C923       C1641   1.486       .  S
C924       C1668   1.480       .  S
C925       C1677   1.484       .  S
C926       C1653   1.485       .  S
C937        N955   1.356       .  A
C937        C974   1.459       .  S
C937       C1728   1.492       .  S
N938        N955   1.328       .  A
N938        N960   1.317       .  A
N938       Co975   2.096       .  S
C939        N964   1.345       .  A
C939        H984   1.081       .  S
C939        C977   1.461       .  S
H940        C981   1.081       .  S
C941        N965   1.342       .  A
C941        H970   1.082       .  S
C941        C945   1.466       .  S
Co942       N960   2.065       .  S
Co942       N950   2.075       .  S
Co942       N982   2.068       .  S
Co942       N958   2.067       .  S
Co942      Cl986   2.434       .  S
N943        C981   1.343       .  A
N943        N950   1.317       .  A
N943       Co944   2.077       .  S
Co944       N947   2.075       .  S
Co944       N964   2.086       .  S
Co944       N951   2.070       .  S
Co944      Cl986   2.455       .  S
C945        N983   1.348       .  A
C945       C1629   1.471       .  S
N946        N953   1.319       .  A
N946        N976   1.325       .  A
N946       Co979   2.092       .  S
N947        N965   1.319       .  A
N947        N983   1.320       .  A
N948        C977   1.344       .  A
N948        N958   1.319       .  A
H949        C974   1.079       .  S
N950        N971   1.321       .  A
N951        N969   1.320       .  A
N951        N956   1.321       .  A
C952        N956   1.346       .  A
C952        C980   1.465       .  S
C952       C1608   1.474       .  S
N953        C968   1.337       .  A
N953       Co975   2.078       .  S
C954        N982   1.333       .  A
C954        H988   1.081       .  S
C954        C957   1.454       .  S
C957        N978   1.356       .  A
C957       C1713   1.483       .  S
N958        N964   1.318       .  A
N959        C985   1.343       .  A
N959        N961   1.322       .  A
N959       Co975   2.091       .  S
N960        C974   1.333       .  A
N961        N989   1.322       .  A
N961       Co979   2.085       .  S
H962        C985   1.082       .  S
H963        C980   1.082       .  S
N965       Co979   2.092       .  S
N966        N978   1.331       .  A
N966        N982   1.319       .  A
N966       Co975   2.102       .  S
C967        N971   1.345       .  A
C967        C981   1.458       .  S
C967       C1680   1.466       .  S
C968        H972   1.082       .  S
C968        C987   1.460       .  S
N969        C980   1.341       .  A
N969       Co979   2.090       .  S
C973        N989   1.348       .  A
C973        C985   1.463       .  S
C973       C1593   1.479       .  S
Co975      Cl986   2.458       .  S
N976        C987   1.353       .  A
C977       C1665   1.468       .  S
Co979      Cl986   2.440       .  S
C987       C1620   1.473       .  S
C990       N1008   1.354       .  A
C990       C1027   1.448       .  S
C990       C1704   1.470       .  S
N991       N1008   1.329       .  A
N991       N1013   1.317       .  A
N991      Co1028   2.094       .  S
C992       N1017   1.348       .  A
C992       H1037   1.081       .  S
C992       C1030   1.473       .  S
H993       C1034   1.078       .  S
C994       N1018   1.345       .  A
C994       H1023   1.082       .  S
C994        C998   1.467       .  S
Co995      N1013   2.053       .  S
Co995      N1003   2.067       .  S
Co995      N1035   2.065       .  S
Co995      N1011   2.056       .  S
Co995     Cl1039   2.432       .  S
N996       C1034   1.345       .  A
N996       N1003   1.316       .  A
N996       Co997   2.090       .  S
Co997      N1000   2.090       .  S
Co997      N1017   2.098       .  S
Co997      N1004   2.077       .  S
Co997     Cl1039   2.462       .  S
C998       N1036   1.352       .  A
C998       C1581   1.484       .  S
N999       N1006   1.321       .  A
N999       N1029   1.325       .  A
N999      Co1032   2.092       .  S
N1000      N1018   1.321       .  A
N1000      N1036   1.324       .  A
N1001      C1030   1.342       .  A
N1001      N1011   1.317       .  A
H1002      C1027   1.082       .  S
N1003      N1024   1.317       .  A
N1004      N1022   1.320       .  A
N1004      N1009   1.322       .  A
C1005      N1009   1.350       .  A
C1005      C1033   1.465       .  S
C1005      C1560   1.475       .  S
N1006      C1021   1.338       .  A
N1006     Co1028   2.081       .  S
C1007      N1035   1.334       .  A
C1007      H1041   1.080       .  S
C1007      C1010   1.448       .  S
C1010      N1031   1.353       .  A
C1010      C1692   1.469       .  S
N1011      N1017   1.316       .  A
N1012      C1038   1.341       .  A
N1012      N1014   1.319       .  A
N1012     Co1028   2.083       .  S
N1013      C1027   1.330       .  A
N1014      N1042   1.322       .  A
N1014     Co1032   2.089       .  S
H1015      C1038   1.082       .  S
H1016      C1033   1.082       .  S
N1018     Co1032   2.099       .  S
N1019      N1031   1.329       .  A
N1019      N1035   1.319       .  A
N1019     Co1028   2.096       .  S
C1020      N1024   1.348       .  A
C1020      C1034   1.475       .  S
C1020      C1656   1.494       .  S
C1021      H1025   1.082       .  S
C1021      C1040   1.460       .  S
N1022      C1033   1.338       .  A
N1022     Co1032   2.086       .  S
C1026      N1042   1.353       .  A
C1026      C1038   1.464       .  S
C1026      C1545   1.479       .  S
Co1028    Cl1039   2.458       .  S
N1029      C1040   1.352       .  A
C1030      C1644   1.489       .  S
Co1032    Cl1039   2.437       .  S
C1040      C1572   1.473       .  S
N1043      H1075   1.042   1_565  S
N1043      C1048   1.354       .  A
N1044      C1051   1.355       .  A
N1044      C1052   1.354       .  A
N1045      H1076   1.039       .  S
N1045      C1050   1.354   1_545  A
N1046      C1053   1.350   1_565  A
N1046      C1054   1.346   1_565  A
C1047      C1055   1.386       .  A
C1047      C1063   1.412       .  A
C1048      C1064   1.416       .  A
C1048      C1056   1.387       .  A
C1049      C1057   1.386       .  A
C1049      C1066   1.415       .  A
C1050      C1065   1.420       .  A
C1050      C1058   1.389       .  A
C1051      C1063   1.422       .  A
C1051      C1059   1.386       .  A
C1052      C1066   1.421       .  A
C1052      C1060   1.386       .  A
C1053      C1061   1.385       .  A
C1053      C1064   1.411   1_545  A
C1054      C1062   1.386       .  A
C1054      C1065   1.409   1_545  A
C1055      H1067   1.082       .  S
C1056      H1068   1.083       .  S
C1057      H1069   1.082       .  S
C1058      H1070   1.082       .  S
C1059      C1060   1.384       .  A
C1059      H1071   1.082       .  S
C1060      H1072   1.082       .  S
C1061      C1062   1.377       .  A
C1061      H1073   1.082       .  S
C1062      H1074   1.082       .  S
C1063      C1521   1.504       .  S
C1064      C1500   1.496       .  S
C1065      C1512   1.483       .  S
C1066      C1533   1.498       .  S
N1077      H1109   1.039   1_556  S
N1077      C1082   1.350       .  A
N1077      C1081   1.355   1_556  A
N1078      C1085   1.350       .  A
N1078      C1086   1.346       .  A
N1079      H1110   1.038       .  S
N1079      C1084   1.354       .  A
N1079      C1083   1.351   1_556  A
N1080      C1087   1.352       .  A
N1080      C1088   1.355       .  A
C1081      C1089   1.386       .  A
C1081      C1097   1.416       .  A
C1082      C1098   1.412       .  A
C1082      C1090   1.387       .  A
C1083      C1091   1.389       .  A
C1083      C1100   1.416       .  A
C1084      C1099   1.411       .  A
C1084      C1092   1.386       .  A
C1085      C1097   1.410       .  A
C1085      C1093   1.385       .  A
C1086      C1100   1.408       .  A
C1086      C1094   1.387       .  A
C1087      C1095   1.387       .  A
C1087      C1098   1.418       .  A
C1088      C1096   1.385       .  A
C1088      C1099   1.418       .  A
C1089      C1090   1.374   1_554  A
C1089      H1101   1.082       .  S
C1090      H1102   1.082       .  S
C1091      C1092   1.371   1_554  A
C1091      H1103   1.082       .  S
C1092      H1104   1.081       .  S
C1093      C1094   1.374       .  A
C1093      H1105   1.082       .  S
C1094      H1106   1.082       .  S
C1095      C1096   1.381       .  A
C1095      H1107   1.082       .  S
C1096      H1108   1.082       .  S
C1097      C1464   1.492       .  S
C1098      C1488   1.487       .  S
C1099      C1476   1.494       .  S
C1100      C1449   1.474       .  S
C1111      N1129   1.339       .  A
C1111      C1148   1.479       .  S
C1111      C1536   1.485       .  S
N1112      N1129   1.320       .  A
N1112      N1134   1.322       .  A
N1112     Co1149   2.064       .  S
C1113      N1138   1.350       .  A
C1113      H1158   1.081       .  S
C1113      C1151   1.476       .  S
H1114      C1155   1.082       .  S
C1115      N1139   1.355       .  A
C1115      H1144   1.081       .  S
C1115      C1119   1.478       .  S
Co1116     N1134   2.126       .  S
Co1116     N2860   2.113       .  S
Co1116     N1156   2.074       .  S
Co1116     N2868   2.083       .  S
Co1116    Cl1160   2.465       .  S
N1117      C1155   1.335       .  A
N1117      N1124   1.323       .  A
N1117     Co1118   2.084       .  S
Co1118     N1121   2.070       .  S
Co1118     N1138   2.103       .  S
Co1118     N1125   2.123       .  S
Co1118    Cl2896   2.442   1_455  S
C1119      N1157   1.340       .  A
C1119      C1473   1.484       .  S
N1120      N1127   1.322       .  A
N1120      N1150   1.332       .  A
N1120     Co1153   2.103       .  S
N1121      N1139   1.322       .  A
N1121      N1157   1.317       .  A
N1122      C1151   1.347       .  A
N1122      N1132   1.322       .  A
H1123      C1148   1.081       .  S
N1124      N1145   1.333       .  A
N1124     Co2852   2.113   1_455  S
N1125      N1143   1.319       .  A
N1125      N1130   1.335       .  A
C1126      N1130   1.364       .  A
C1126      C1154   1.447       .  S
C1126      C1413   1.493       .  S
N1127      C1142   1.331       .  A
N1127     Co1149   2.071       .  S
C1128      N1156   1.334       .  A
C1128      H1162   1.081       .  S
C1128      C1131   1.447       .  S
C1131      N1152   1.358       .  A
C1131      C1425   1.478       .  S
N1132      N1138   1.321       .  A
N1132     Co2852   2.088   1_455  S
N1133      C1159   1.347       .  A
N1133      N1135   1.321       .  A
N1133     Co1149   2.096       .  S
N1134      C1148   1.355       .  A
N1135      N1163   1.323       .  A
N1135     Co1153   2.087       .  S
H1136      C1159   1.081       .  S
H1137      C1154   1.081       .  S
N1139     Co2889   2.117   1_455  S
N1140      N1152   1.332       .  A
N1140      N1156   1.321       .  A
N1140     Co1149   2.108       .  S
C1141      N1145   1.359       .  A
C1141      C1155   1.446       .  S
C1141      C1524   1.481       .  S
C1142      H1146   1.082       .  S
C1142      C1161   1.444       .  S
N1143      C1154   1.327       .  A
N1143     Co2889   2.054   1_455  S
C1147      N1163   1.345       .  A
C1147      C1159   1.466       .  S
C1147      C1437   1.476       .  S
Co1149    Cl1160   2.446       .  S
N1150      C1161   1.358       .  A
C1151      C1401   1.495       .  S
Co1153     N2875   2.134       .  S
Co1153     N2879   2.051       .  S
Co1153    Cl1160   2.465       .  S
Cl1160    Co2854   2.444       .  S
C1161      C1485   1.472       .  S
N1164      H1196   1.037       .  S
N1164      C1169   1.352       .  A
N1164      C1168   1.351       .  A
N1165      C1172   1.351       .  A
N1165      C1173   1.352       .  A
N1166      H1197   1.035       .  S
N1166      C1171   1.355       .  A
N1166      C1170   1.355       .  A
N1167      C1174   1.351       .  A
N1167      C1175   1.351       .  A
C1168      C1176   1.387       .  A
C1168      C1184   1.412       .  A
C1169      C1185   1.413       .  A
C1169      C1177   1.387       .  A
C1170      C1178   1.387       .  A
C1170      C1187   1.419       .  A
C1171      C1186   1.419       .  A
C1171      C1179   1.387       .  A
C1172      C1184   1.413       .  A
C1172      C1180   1.387       .  A
C1173      C1187   1.413       .  A
C1173      C1181   1.386       .  A
C1174      C1182   1.386       .  A
C1174      C1185   1.412       .  A
C1175      C1183   1.387       .  A
C1175      C1186   1.413       .  A
C1176      C1177   1.377       .  A
C1176      H1188   1.082       .  S
C1177      H1189   1.083       .  S
C1178      C1179   1.379       .  A
C1178      H1190   1.082       .  S
C1179      H1191   1.082       .  S
C1180      C1181   1.371       .  A
C1180      H1192   1.082       .  S
C1181      H1193   1.082       .  S
C1182      C1183   1.372       .  A
C1184      C1557   1.485       .  S
C1185      C1548   1.485       .  S
C1186      C1404   1.489       .  S
C1187      C1416   1.490       .  S
N1198      H1230   1.038       .  S
N1198      C1203   1.353       .  A
N1198      C1202   1.353       .  A
N1199      C1206   1.354       .  A
N1199      C1207   1.354       .  A
N1200      H1231   1.038       .  S
N1200      C1205   1.356       .  A
N1200      C1204   1.352       .  A
N1201      C1208   1.351       .  A
N1201      C1209   1.353       .  A
C1202      C1210   1.386       .  A
C1202      C1218   1.413       .  A
C1203      C1219   1.416       .  A
C1203      C1211   1.388       .  A
C1204      C1212   1.386       .  A
C1204      C1221   1.415       .  A
C1205      C1220   1.419       .  A
C1205      C1213   1.387       .  A
C1206      C1218   1.417       .  A
C1206      C1214   1.385       .  A
C1207      C1221   1.418       .  A
C1207      C1215   1.387       .  A
C1208      C1216   1.386       .  A
C1208      C1219   1.415       .  A
C1209      C1217   1.386       .  A
C1209      C1220   1.416       .  A
C1210      C1211   1.375       .  A
C1212      C1213   1.377       .  A
C1212      H1224   1.082       .  S
C1213      H1225   1.082       .  S
C1214      C1215   1.377       .  A
C1214      H1226   1.082       .  S
C1215      H1227   1.082       .  S
C1216      C1217   1.375       .  A
C1216      H1228   1.082       .  S
C1217      H1229   1.082       .  S
C1218      C1428   1.492       .  S
C1219      C1569   1.490       .  S
C1220      C1584   1.499       .  S
C1221      C1440   1.490       .  S
N1232      H1264   1.039       .  S
N1232      C1237   1.353       .  A
N1232      C1236   1.355       .  A
N1233      C1240   1.351       .  A
N1233      C1241   1.350       .  A
N1234      H1265   1.039       .  S
N1234      C1239   1.353       .  A
N1234      C1238   1.351       .  A
N1235      C1242   1.350       .  A
N1235      C1243   1.352       .  A
C1236      C1244   1.386       .  A
C1236      C1252   1.417       .  A
C1237      C1253   1.418       .  A
C1237      C1245   1.388       .  A
C1238      C1246   1.387       .  A
C1238      C1255   1.412       .  A
C1239      C1254   1.414       .  A
C1239      C1247   1.387       .  A
C1240      C1252   1.412       .  A
C1240      C1248   1.386       .  A
C1241      C1255   1.410       .  A
C1241      C1249   1.386       .  A
C1242      C1250   1.387       .  A
C1242      C1253   1.414       .  A
C1243      C1251   1.385       .  A
C1243      C1254   1.412       .  A
C1244      C1245   1.377       .  A
C1244      H1256   1.082       .  S
C1245      H1257   1.082       .  S
C1246      C1247   1.377       .  A
C1246      H1258   1.082       .  S
C1247      H1259   1.082       .  S
C1248      C1249   1.372       .  A
C1248      H1260   1.082       .  S
C1249      H1261   1.082       .  S
C1250      C1251   1.374       .  A
C1252      C1389   1.494       .  S
C1253      C1377   1.489       .  S
C1254      C1596   1.490       .  S
C1255      C1605   1.481       .  S
N1266      H1298   1.038       .  S
N1266      C1271   1.353       .  A
N1266      C1270   1.350       .  A
N1267      C1274   1.351       .  A
N1267      C1275   1.353       .  A
N1268      H1299   1.038       .  S
N1268      C1273   1.353       .  A
N1268      C1272   1.353       .  A
N1269      C1276   1.350       .  A
N1269      C1277   1.348       .  A
C1270      C1278   1.387       .  A
C1270      C1286   1.412       .  A
C1271      C1287   1.413       .  A
C1271      C1279   1.386       .  A
C1272      C1280   1.386       .  A
C1272      C1289   1.415       .  A
C1273      C1288   1.416       .  A
C1273      C1281   1.387       .  A
C1274      C1286   1.414       .  A
C1274      C1282   1.387       .  A
C1275      C1289   1.414       .  A
C1275      C1283   1.386       .  A
C1276      C1284   1.385       .  A
C1276      C1287   1.411       .  A
C1277      C1285   1.387       .  A
C1277      C1288   1.411       .  A
C1278      C1279   1.376       .  A
C1280      C1281   1.377       .  A
C1280      H1292   1.082       .  S
C1281      H1293   1.082       .  S
C1282      C1283   1.374       .  A
C1282      H1294   1.082       .  S
C1283      H1295   1.082       .  S
C1284      C1285   1.374       .  A
C1284      H1296   1.082       .  S
C1285      H1297   1.082       .  S
C1286      C1356   1.485       .  S
C1287      C1617   1.487       .  S
C1288      C1632   1.485       .  S
C1289      C1365   1.493       .  S
C1300      N1318   1.355       .  A
C1300      C1337   1.456       .  S
C1300      C1509   1.484       .  S
N1301      N1318   1.329       .  A
N1301      N1323   1.318       .  A
N1301     Co1338   2.097       .  S
C1302      N3063   1.344       .  A
C1302      H1347   1.081       .  S
C1302      C1340   1.467       .  S
H1303      C1344   1.081       .  S
C1304      N1328   1.337       .  A
C1304      H1333   1.081       .  S
C1304      C1308   1.460       .  S
Co1305     N1323   2.069       .  S
Co1305     N1313   2.086       .  S
Co1305     N1345   2.085       .  S
Co1305     N1321   2.078       .  S
Co1305    Cl1349   2.443       .  S
N1306      C1344   1.345       .  A
N1306      N1313   1.320       .  A
N1306     Co1307   2.090       .  S
Co1307     N1310   2.095       .  S
Co1307     N1327   2.089       .  S
Co1307     N3050   2.075       .  S
Co1307    Cl1349   2.462       .  S
C1308      N1346   1.354       .  A
C1308      C1368   1.485       .  S
N1309      N1316   1.319       .  A
N1309      N1339   1.323       .  A
N1309     Co1342   2.085       .  S
N1310      N1328   1.320       .  A
N1310      N1346   1.327       .  A
N1311      C1340   1.343       .  A
N1311      N3057   1.319       .  A
H1312      C1337   1.081       .  S
N1313      N1334   1.323       .  A
N1314      N1332   1.320       .  A
N1314      N1319   1.323       .  A
N1314     Co3043   2.075   1_455  S
C1315      N1319   1.349       .  A
C1315      C1343   1.467       .  S
C1315      C1392   1.479       .  S
N1316      C1331   1.337       .  A
N1316     Co1338   2.075       .  S
C1317      N3081   1.336       .  A
C1317      H1351   1.078       .  S
C1317      C1320   1.453       .  S
C1320      N1341   1.350       .  A
C1320      C1497   1.472       .  S
N1321      N3047   1.323       .  A
N1321      N1327   1.319       .  A
N1322      C1348   1.338       .  A
N1322      N1324   1.319       .  A
N1322     Co3074   2.081   1_455  S
N1323      C1337   1.333       .  A
N1324      N1352   1.325       .  A
N1324     Co3078   2.088   1_455  S
H1325      C1348   1.082       .  S
H1326      C1343   1.082       .  S
N1327      C3038   1.343       .  A
N1328     Co1342   2.082       .  S
N1329      N3077   1.328       .  A
N1329      N1345   1.319       .  A
N1329     Co1338   2.084       .  S
C1330      N1334   1.347       .  A
C1330      C1344   1.460       .  S
C1330      C1461   1.473       .  S
C1331      H1335   1.082       .  S
C1331      C1350   1.461       .  S
N1332      C1343   1.344       .  A
N1332     Co3078   2.101   1_455  S
C1336      N1352   1.353       .  A
C1336      C1348   1.459       .  S
C1336      C1380   1.472       .  S
Co1338     N3058   2.080       .  S
Co1338    Cl1349   2.454       .  S
N1339      C1350   1.352       .  A
C1340      C1452   1.477       .  S
N1341      N3065   1.328       .  A
Co1342     N3060   2.086       .  S
Co1342     N3068   2.096       .  S
Co1342    Cl1349   2.439       .  S
N1345      C3053   1.338       .  A
C1350      C1353   1.475       .  S
C1353      C1354   1.406       .  A
C1353      C1358   1.412       .  A
C1354      H1363   1.084       .  S
C1355      C1356   1.412       .  A
C1355      S1359   1.804       .  S
C1356      C1357   1.402       .  A
C1357      H1364   1.084       .  S
C1358      S1360   1.804       .  S
S1359      H1362   1.406       .  S
S1360      H1361   1.406       .  S
C1365      C1366   1.402       .  A
C1365      C1370   1.414       .  A
C1366      C1367   1.402       .  A
C1366      H1375   1.083       .  S
C1367      C1368   1.419       .  A
C1367      S1371   1.810       .  S
C1368      C1369   1.404       .  A
C1369      C1370   1.403       .  A
C1369      H1376   1.084       .  S
C1370      S1372   1.804       .  S
S1371      H1374   1.406       .  S
S1372      H1373   1.405       .  S
C1377      C1378   1.406       .  A
C1377      C1382   1.413       .  A
C1378      C1379   1.399       .  A
C1378      H1387   1.084       .  S
C1379      S1383   1.804       .  S
C1380      C1381   1.403   1_565  A
C1381      H1388   1.084       .  S
C1389      C1390   1.402       .  A
C1389      C1394   1.417       .  A
C1390      C1391   1.399       .  A
C1390      H1399   1.084       .  S
C1391      C1392   1.416       .  A
C1391      S1395   1.803       .  S
C1392      C1393   1.401       .  A
C1393      C1394   1.403       .  A
C1393      H1400   1.084       .  S
C1394      S1396   1.804       .  S
S1395      H1398   1.403       .  S
S1396      H1397   1.406       .  S
C1401      C1402   1.407       .  A
C1402      C1403   1.399       .  A
C1402      H1411   1.082       .  S
C1403      S1407   1.804       .  S
C1404      C1405   1.405       .  A
C1405      C1406   1.409   1_565  A
C1405      H1412   1.083       .  S
C1406      S1408   1.805       .  S
C1413      C1414   1.409       .  A
C1413      C1418   1.415       .  A
C1414      C1415   1.393       .  A
C1414      H1423   1.081       .  S
C1415      C1416   1.407       .  A
C1415      S1419   1.806       .  S
C1416      C1417   1.407       .  A
C1417      C1418   1.409       .  A
C1417      H1424   1.083       .  S
C1418      S1420   1.798       .  S
S1419      H1422   1.405       .  S
S1420      H1421   1.407       .  S
C1425      C1426   1.404       .  A
C1425      C1430   1.414       .  A
C1427      C1428   1.417       .  A
C1427      S1431   1.807       .  S
C1429      C1430   1.397       .  A
C1429      H1436   1.084       .  S
C1430      S1432   1.805       .  S
S1431      H1434   1.402       .  S
S1432      H1433   1.406       .  S
C1437      C1438   1.404       .  A
C1437      C1442   1.412       .  A
C1438      C1439   1.405       .  A
C1438      H1447   1.084       .  S
C1439      C1440   1.414       .  A
C1439      S1443   1.803       .  S
C1440      C1441   1.402       .  A
C1441      C1442   1.399       .  A
C1441      H1448   1.084       .  S
C1442      S1444   1.804       .  S
S1443      H1446   1.405       .  S
S1444      H1445   1.405       .  S
C1449      C1450   1.394       .  A
C1449      C1454   1.409       .  A
C1450      C1451   1.392       .  A
C1450      H1459   1.083       .  S
C1451      C1452   1.418       .  A
C1451      S1455   1.800       .  S
C1452      C1453   1.404       .  A
C1453      C1454   1.399       .  A
C1453      H1460   1.083       .  S
C1454      S1456   1.803       .  S
S1455      H1458   1.407       .  S
S1456      H1457   1.405       .  S
C1461      C1462   1.400       .  A
C1461      C1466   1.410       .  A
C1462      C1463   1.401       .  A
C1462      H1471   1.084       .  S
C1463      C1464   1.416       .  A
C1463      S1467   1.804       .  S
C1464      C1465   1.404       .  A
C1465      C1466   1.400       .  A
C1465      H1472   1.084       .  S
C1466      S1468   1.802       .  S
S1467      H1470   1.406       .  S
S1468      H1469   1.406       .  S
C1473      C1474   1.405       .  A
C1473      C1478   1.416       .  A
C1474      C1475   1.410       .  A
C1474      H1483   1.083       .  S
C1475      C1476   1.417       .  A
C1475      S1479   1.803       .  S
C1476      C1477   1.399       .  A
C1477      C1478   1.397       .  A
C1477      H1484   1.084       .  S
C1478      S1480   1.804       .  S
S1479      H1482   1.405       .  S
S1480      H1481   1.407       .  S
C1485      C1486   1.405       .  A
C1485      C1490   1.410       .  A
C1486      C1487   1.408       .  A
C1486      H1495   1.084       .  S
C1487      C1488   1.415       .  A
C1487      S1491   1.806       .  S
C1488      C1489   1.402       .  A
C1489      C1490   1.393       .  A
C1489      H1496   1.084       .  S
C1490      S1492   1.805       .  S
S1491      H1494   1.403       .  S
S1492      H1493   1.407       .  S
C1497      C1498   1.398   1_565  A
C1497      C1502   1.413       .  A
C1498      C1499   1.399       .  A
C1498      H1507   1.084       .  S
C1499      C1500   1.417   1_545  A
C1500      C1501   1.406       .  A
C1501      C1502   1.403       .  A
C1501      H1508   1.083       .  S
C1502      S1504   1.806       .  S
S1503      H1506   1.407       .  S
S1504      H1505   1.405       .  S
C1509      C1510   1.404       .  A
C1509      C1514   1.415       .  A
C1510      C1511   1.390       .  A
C1510      H1519   1.079       .  S
C1511      C1512   1.408       .  A
C1511      S1515   1.806       .  S
C1512      C1513   1.404   1_565  A
C1513      C1514   1.405   1_545  A
S1515      H1518   1.404       .  S
S1516      H1517   1.407       .  S
C1521      C1522   1.409       .  A
C1521      C1526   1.416       .  A
C1522      C1523   1.401       .  A
C1522      H1531   1.084       .  S
C1523      C1524   1.409       .  A
C1523      S1527   1.804       .  S
C1524      C1525   1.407       .  A
C1525      C1526   1.409       .  A
C1525      H1532   1.084       .  S
S1527      H1530   1.406       .  S
S1528      H1529   1.405       .  S
C1533      C1534   1.405       .  A
C1533      C1538   1.415       .  A
C1534      C1535   1.409       .  A
C1534      H1543   1.084       .  S
C1535      C1536   1.416       .  A
C1535      S1539   1.800       .  S
C1536      C1537   1.404       .  A
C1537      C1538   1.402       .  A
C1537      H1544   1.084       .  S
C1538      S1540   1.805       .  S
S1539      H1542   1.403       .  S
S1540      H1541   1.406       .  S
C1545      C1546   1.405       .  A
C1546      C1547   1.399       .  A
C1546      H1555   1.082       .  S
C1547      S1551   1.807       .  S
C1548      C1549   1.403       .  A
C1549      C1550   1.402       .  A
C1549      H1556   1.083       .  S
C1550      S1552   1.806       .  S
C1557      C1558   1.404       .  A
C1557      C1562   1.411       .  A
C1558      C1559   1.400       .  A
C1558      H1567   1.084       .  S
C1559      C1560   1.412       .  A
C1559      S1563   1.804       .  S
C1560      C1561   1.406       .  A
C1561      C1562   1.396       .  A
C1561      H1568   1.083       .  S
C1562      S1564   1.804       .  S
S1563      H1566   1.406       .  S
S1564      H1565   1.406       .  S
C1569      C1570   1.401       .  A
C1569      C1574   1.415       .  A
C1570      H1579   1.084       .  S
C1571      C1572   1.416       .  A
C1571      S1575   1.803       .  S
C1573      C1574   1.403   1_545  A
C1573      H1580   1.084       .  S
C1574      S1576   1.804       .  S
S1575      H1578   1.404       .  S
S1576      H1577   1.406       .  S
C1581      C1582   1.405       .  A
C1581      C1586   1.413       .  A
C1582      C1583   1.401       .  A
C1582      H1591   1.084       .  S
C1583      C1584   1.415       .  A
C1583      S1587   1.804       .  S
C1584      C1585   1.407       .  A
C1585      C1586   1.405       .  A
C1585      H1592   1.084       .  S
C1586      S1588   1.803       .  S
S1587      H1590   1.406       .  S
S1588      H1589   1.406       .  S
C1593      C1594   1.403   1_565  A
C1593      C1598   1.418       .  A
C1594      H1603   1.084       .  S
C1595      C1596   1.414       .  A
C1595      S1599   1.805       .  S
C1596      C1597   1.401       .  A
C1597      H1604   1.084       .  S
C1598      S1600   1.804       .  S
S1599      H1602   1.405       .  S
S1600      H1601   1.406       .  S
C1605      C1606   1.401       .  A
C1605      C1610   1.411       .  A
C1606      C1607   1.397       .  A
C1606      H1615   1.084       .  S
C1607      C1608   1.416       .  A
C1607      S1611   1.803       .  S
C1608      C1609   1.402       .  A
C1609      C1610   1.398       .  A
C1609      H1616   1.084       .  S
C1610      S1612   1.805       .  S
S1611      H1614   1.406       .  S
S1612      H1613   1.405       .  S
C1617      C1618   1.405       .  A
C1617      C1622   1.412       .  A
C1618      H1627   1.084       .  S
C1619      C1620   1.410       .  A
C1619      S1623   1.805       .  S
C1620      C1621   1.404   1_565  A
C1621      H1628   1.084       .  S
C1622      S1624   1.804       .  S
S1623      H1626   1.405       .  S
S1624      H1625   1.406       .  S
C1629      C1630   1.404       .  A
C1629      C1634   1.410       .  A
C1630      C1631   1.395       .  A
C1630      H1639   1.084       .  S
C1631      C1632   1.413       .  A
C1631      S1635   1.806       .  S
C1632      C1633   1.404       .  A
C1633      C1634   1.401       .  A
C1633      H1640   1.084       .  S
C1634      S1636   1.803       .  S
S1635      H1638   1.406       .  S
S1636      H1637   1.406       .  S
C1641      C1642   1.398       .  A
C1641      C1646   1.410       .  A
C1642      C1643   1.397       .  A
C1642      H1651   1.083       .  S
C1643      C1644   1.424       .  A
C1643      S1647   1.812       .  S
C1644      C1645   1.407       .  A
C1645      C1646   1.402       .  A
C1645      H1652   1.082       .  S
C1646      S1648   1.803       .  S
S1647      H1650   1.407       .  S
S1648      H1649   1.405       .  S
C1653      C1654   1.402       .  A
C1653      C1658   1.408       .  A
C1654      C1655   1.405       .  A
C1654      H1663   1.084       .  S
C1655      C1656   1.420       .  A
C1655      S1659   1.795       .  S
C1656      C1657   1.410       .  A
C1657      C1658   1.391       .  A
C1657      H1664   1.083       .  S
C1658      S1660   1.806       .  S
S1659      H1662   1.408       .  S
S1660      H1661   1.406       .  S
C1665      C1666   1.401       .  A
C1665      C1670   1.413       .  A
C1666      C1667   1.400       .  A
C1666      H1675   1.084       .  S
C1667      C1668   1.412       .  A
C1667      S1671   1.804       .  S
C1668      C1669   1.399       .  A
C1669      C1670   1.395       .  A
C1669      H1676   1.084       .  S
C1670      S1672   1.805       .  S
S1671      H1674   1.405       .  S
S1672      H1673   1.407       .  S
C1677      C1678   1.402       .  A
C1677      C1682   1.414       .  A
C1678      C1679   1.396       .  A
C1678      H1687   1.084       .  S
C1679      C1680   1.411       .  A
C1679      S1683   1.804       .  S
C1680      C1681   1.400       .  A
C1681      C1682   1.399       .  A
C1681      H1688   1.084       .  S
C1682      S1684   1.804       .  S
S1683      H1686   1.406       .  S
S1684      H1685   1.406       .  S
C1689      C1690   1.400       .  A
C1689      C1694   1.413       .  A
C1690      C1691   1.396       .  A
C1690      H1699   1.084       .  S
C1691      C1692   1.414       .  A
C1691      S1695   1.805       .  S
C1692      C1693   1.400       .  A
C1693      C1694   1.400       .  A
C1693      H1700   1.084       .  S
S1695      H1698   1.407       .  S
S1696      H1697   1.406       .  S
C1701      C1702   1.403       .  A
C1701      C1706   1.412       .  A
C1702      C1703   1.398       .  A
C1702      H1711   1.084       .  S
C1703      C1704   1.409       .  A
C1703      S1707   1.799       .  S
C1704      C1705   1.404       .  A
C1705      C1706   1.394       .  A
C1705      H1712   1.085       .  S
C1706      S1708   1.808       .  S
S1707      H1710   1.405       .  S
S1708      H1709   1.398       .  S
C1713      C1714   1.405       .  A
C1713      C1718   1.414       .  A
C1714      C1715   1.408       .  A
C1714      H1723   1.084       .  S
C1715      C1716   1.419       .  A
C1715      S1719   1.804   1_565  S
C1716      C1717   1.404       .  A
C1717      C1718   1.392       .  A
C1717      H1724   1.084       .  S
C1718      S1720   1.804       .  S
S1719      H1722   1.406       .  S
S1720      H1721   1.407       .  S
C1725      C1726   1.402       .  A
C1725      C1730   1.409       .  A
C1726      C1727   1.404       .  A
C1726      H1735   1.084   1_565  S
C1727      C1728   1.419       .  A
C1727      S1731   1.799       .  S
C1728      C1729   1.409       .  A
C1729      C1730   1.392       .  A
C1729      H1736   1.079       .  S
C1730      S1732   1.807       .  S
S1731      H1734   1.408       .  S
S1732      H1733   1.406       .  S
N1737      H1769   1.038       .  S
N1737      C2610   1.353       .  A
N1737      C1741   1.352       .  A
N1738      C1746   1.349       .  A
N1739      H1770   1.040   1_545  S
N1739      C1744   1.352       .  A
N1739      C2611   1.352       .  A
N1740      C1748   1.345       .  A
C1741      C1749   1.385       .  A
C1741      C1757   1.411       .  A
C1742      N2605   1.354   1_545  A
C1742      C1758   1.416       .  A
C1742      C1750   1.388       .  A
C1743      N2607   1.350       .  A
C1743      C1751   1.388       .  A
C1743      C1760   1.414       .  A
C1744      C1759   1.413       .  A
C1744      C1752   1.386       .  A
C1745      C1757   1.412       .  A
C1745      C1753   1.385       .  A
C1746      C1760   1.412       .  A
C1746      C1754   1.387       .  A
C1747      C1755   1.385       .  A
C1747      C1758   1.406       .  A
C1748      C1756   1.386       .  A
C1748      C1759   1.405       .  A
C1749      C2618   1.375       .  A
C1749      H1761   1.082       .  S
C1750      C2617   1.375       .  A
C1750      H1762   1.082       .  S
C1751      C2620   1.376       .  A
C1751      H1763   1.083       .  S
C1752      C2619   1.375       .  A
C1752      H1764   1.083       .  S
C1753      H1765   1.082       .  S
C1754      H1766   1.082       .  S
C1755      H1767   1.082       .  S
C1756      H1768   1.082       .  S
C1757      C2593   1.488       .  S
C1758      C2569   1.483       .  S
C1759      C2557   1.479       .  S
C1760      C2584   1.487       .  S
N1771      H1803   1.040       .  S
N1771      C1776   1.353       .  A
N1771      C1775   1.353       .  A
N1772      C1780   1.351       .  A
N1773      H1804   1.040       .  S
N1773      C1778   1.353       .  A
N1773      C1777   1.351       .  A
N1774      C1782   1.349       .  A
C1775      C1783   1.387       .  A
C1775      C1791   1.416       .  A
C1776      C1792   1.417       .  A
C1776      C1784   1.388       .  A
C1777      C1785   1.388       .  A
C1777      C1794   1.415       .  A
C1778      C1793   1.415       .  A
C1778      C1786   1.387       .  A
C1779      C1791   1.410       .  A
C1779      C1787   1.386       .  A
C1780      C1794   1.412       .  A
C1780      C1788   1.387       .  A
C1781      C1789   1.386       .  A
C1781      C1792   1.409       .  A
C1782      C1790   1.387       .  A
C1782      C1793   1.411       .  A
C1783      C1784   1.374       .  A
C1783      H1795   1.083       .  S
C1784      H1796   1.082       .  S
C1785      C1786   1.376       .  A
C1785      H1797   1.083       .  S
C1786      H1798   1.082       .  S
C1787      H1799   1.082       .  S
C1788      H1800   1.082       .  S
C1789      H1801   1.082       .  S
C1790      H1802   1.082       .  S
C1791      C2509   1.487       .  S
C1792      C2536   1.482       .  S
C1793      C2545   1.486       .  S
C1794      C2521   1.485       .  S
C1805      N1823   1.356       .  A
C1805      C1842   1.461       .  S
C1805      C2596   1.496       .  S
N1806      N1823   1.328       .  A
N1806      N1828   1.317       .  A
N1806     Co1843   2.095       .  S
C1807      N1832   1.345       .  A
C1807      H1852   1.081       .  S
C1807      C1845   1.461       .  S
H1808      C1849   1.081       .  S
C1809      N1833   1.342       .  A
C1809      H1838   1.082       .  S
C1809      C1813   1.465       .  S
Co1810     N1828   2.073       .  S
Co1810     N1818   2.067       .  S
Co1810     N1850   2.055       .  S
Co1810     N1826   2.073       .  S
Co1810    Cl1854   2.430       .  S
N1811      C1849   1.346       .  A
N1811      N1818   1.318       .  A
N1811     Co1812   2.088       .  S
Co1812     N1815   2.069       .  S
Co1812     N1832   2.082       .  S
Co1812     N1819   2.073       .  S
Co1812    Cl1854   2.455       .  S
C1813      N1851   1.347       .  A
C1813      C2497   1.470       .  S
N1814      N1821   1.319       .  A
N1814      N1844   1.324       .  A
N1814     Co1847   2.088       .  S
N1815      N1833   1.319       .  A
N1815      N1851   1.320       .  A
N1816      C1845   1.346       .  A
N1816      N1826   1.320       .  A
H1817      C1842   1.080       .  S
N1818      N1839   1.320       .  A
N1819      N1837   1.320       .  A
N1819      N1824   1.321       .  A
C1820      N1824   1.346       .  A
C1820      C1848   1.466       .  S
C1820      C2476   1.473       .  S
N1821      C1836   1.338       .  A
N1821     Co1843   2.084       .  S
C1822      N1850   1.328       .  A
C1822      H1856   1.080       .  S
C1822      C1825   1.449       .  S
C1825      N1846   1.356       .  A
C1825      C2581   1.477       .  S
N1826      N1832   1.317       .  A
N1827      C1853   1.342       .  A
N1827      N1829   1.322       .  A
N1827     Co1843   2.089       .  S
N1828      C1842   1.334       .  A
N1829      N1857   1.325       .  A
N1829     Co1847   2.095       .  S
H1830      C1853   1.082       .  S
H1831      C1848   1.082       .  S
N1833     Co1847   2.092       .  S
N1834      N1846   1.330       .  A
N1834      N1850   1.318       .  A
N1834     Co1843   2.097       .  S
C1835      N1839   1.344       .  A
C1835      C1849   1.462       .  S
C1835      C2548   1.469       .  S
C1836      H1840   1.082       .  S
C1836      C1855   1.463       .  S
N1837      C1848   1.341       .  A
N1837     Co1847   2.090       .  S
C1841      N1857   1.352       .  A
C1841      C1853   1.461       .  S
C1841      C2461   1.483       .  S
Co1843    Cl1854   2.461       .  S
N1844      C1855   1.352       .  A
C1845      C2533   1.470       .  S
Co1847    Cl1854   2.442       .  S
C1855      C2488   1.473       .  S
C1858      N1876   1.352       .  A
C1858      C1895   1.449       .  S
C1858      C2572   1.469       .  S
N1859      N1876   1.328       .  A
N1859      N1881   1.317       .  A
N1859     Co1896   2.089       .  S
C1860      N1885   1.348       .  A
C1860      H1905   1.081       .  S
C1860      C1898   1.475       .  S
H1861      C1902   1.079       .  S
C1862      N1886   1.343       .  A
C1862      H1891   1.082       .  S
C1862      C1866   1.465       .  S
Co1863     N1881   2.060       .  S
Co1863     N1871   2.062       .  S
Co1863     N1903   2.063       .  S
Co1863     N1879   2.063       .  S
Co1863    Cl1907   2.431       .  S
N1864      C1902   1.346       .  A
N1864      N1871   1.316       .  A
N1864     Co1865   2.092       .  S
Co1865     N1868   2.080       .  S
Co1865     N1885   2.099       .  S
Co1865     N1872   2.086       .  S
Co1865    Cl1907   2.463       .  S
C1866      N1904   1.349       .  A
C1866      C2449   1.475       .  S
N1867      N1874   1.319       .  A
N1867      N1897   1.324       .  A
N1867     Co1900   2.087       .  S
N1868      N1886   1.320       .  A
N1868      N1904   1.322       .  A
N1869      C1898   1.342       .  A
N1869      N1879   1.317       .  A
H1870      C1895   1.081       .  S
N1871      N1892   1.317       .  A
N1872      N1890   1.321       .  A
N1872      N1877   1.324       .  A
C1873      N1877   1.352       .  A
C1873      C1901   1.462       .  S
C1873      C2428   1.479       .  S
N1874      C1889   1.337       .  A
N1874     Co1896   2.079       .  S
C1875      N1903   1.333       .  A
C1875      H1909   1.079       .  S
C1875      C1878   1.447       .  S
C1878      N1899   1.353       .  A
C1878      C2560   1.467       .  S
N1879      N1885   1.317       .  A
N1880      C1906   1.339       .  A
N1880      N1882   1.319       .  A
N1880     Co1896   2.078       .  S
N1881      C1895   1.332       .  A
N1882      N1910   1.323       .  A
N1882     Co1900   2.089       .  S
H1883      C1906   1.082       .  S
H1884      C1901   1.082       .  S
N1886     Co1900   2.096       .  S
N1887      N1899   1.329       .  A
N1887      N1903   1.318       .  A
N1887     Co1896   2.093       .  S
C1888      N1892   1.346       .  A
C1888      C1902   1.473       .  S
C1888      C2524   1.489       .  S
C1889      H1893   1.082       .  S
C1889      C1908   1.461       .  S
N1890      C1901   1.338       .  A
N1890     Co1900   2.083       .  S
C1894      N1910   1.353       .  A
C1894      C1906   1.462       .  S
C1894      C2413   1.476       .  S
Co1896    Cl1907   2.456       .  S
N1897      C1908   1.352       .  A
C1898      C2512   1.491       .  S
Co1900    Cl1907   2.435       .  S
C1908      C2440   1.472       .  S
N1911      H1943   1.041       .  S
N1911      C1916   1.355       .  A
N1911      C2783   1.352   1_554  A
N1912      C1919   1.355       .  A
N1912      C1920   1.355       .  A
N1913      H1944   1.038       .  S
N1913      C1918   1.354       .  A
N1913      C2785   1.354   1_554  A
N1914      C1921   1.349       .  A
N1914      C1922   1.346       .  A
C1915      N2779   1.350   1_556  A
C1915      C1923   1.387       .  A
C1915      C1931   1.411   1_565  A
C1916      C1932   1.416       .  A
C1916      C1924   1.387       .  A
C1917      N2781   1.354   1_556  A
C1917      C1925   1.385   1_545  A
C1917      C1934   1.414       .  A
C1918      C1933   1.418       .  A
C1918      C1926   1.389       .  A
C1919      C1931   1.422       .  A
C1919      C1927   1.386       .  A
C1920      C1934   1.420       .  A
C1920      C1928   1.385       .  A
C1921      C1929   1.386       .  A
C1921      C1932   1.410       .  A
C1922      C1930   1.386       .  A
C1922      C1933   1.407       .  A
C1923      C2792   1.375   1_556  A
C1923      H1935   1.083       .  S
C1924      C2791   1.374   1_554  A
C1924      H1936   1.082       .  S
C1925      C2794   1.373   1_556  A
C1925      H1937   1.082       .  S
C1926      C2793   1.372   1_554  A
C1926      H1938   1.082       .  S
C1927      C1928   1.383       .  A
C1927      H1939   1.082       .  S
C1928      H1940   1.082       .  S
C1929      C1930   1.376       .  A
C1929      H1941   1.082       .  S
C1930      H1942   1.082       .  S
C1931      C2389   1.500       .  S
C1932      C2368   1.495       .  S
C1933      C2380   1.479       .  S
C1934      C2401   1.498       .  S
N1945      H1977   1.039       .  S
N1945      C1950   1.351       .  A
N1945      C1949   1.353   1_556  A
N1946      C1953   1.350       .  A
N1946      C1954   1.349       .  A
N1947      H1978   1.038       .  S
N1947      C1952   1.353       .  A
N1947      C1951   1.353   1_556  A
N1948      C1955   1.354       .  A
N1948      C1956   1.355       .  A
C1949      C1957   1.387       .  A
C1949      C1965   1.416       .  A
C1950      C1966   1.412       .  A
C1950      C1958   1.387       .  A
C1951      C1959   1.389       .  A
C1951      C1968   1.417       .  A
C1952      C1967   1.412       .  A
C1952      C1960   1.386       .  A
C1953      C1965   1.413       .  A
C1953      C1961   1.387       .  A
C1954      C1968   1.410       .  A
C1954      C1962   1.385       .  A
C1955      C1963   1.386       .  A
C1955      C1966   1.419       .  A
C1956      C1964   1.386       .  A
C1956      C1967   1.420       .  A
C1957      C1958   1.375   1_554  A
C1957      H1969   1.082       .  S
C1958      H1970   1.082       .  S
C1959      C1960   1.372   1_554  A
C1959      H1971   1.082       .  S
C1960      H1972   1.082       .  S
C1961      C1962   1.375       .  A
C1961      H1973   1.082       .  S
C1962      H1974   1.082       .  S
C1963      C1964   1.383       .  A
C1963      H1975   1.082       .  S
C1964      H1976   1.082       .  S
C1965      C2332   1.492       .  S
C1966      C2356   1.491       .  S
C1967      C2344   1.496       .  S
C1968      C2317   1.483       .  S
C1979      N1997   1.338       .  A
C1979      C2016   1.482       .  S
C1979      C2404   1.488       .  S
N1980      N1997   1.318       .  A
N1980      N2002   1.321       .  A
N1980     Co2017   2.058       .  S
C1981      N2006   1.350       .  A
C1981      H2026   1.081       .  S
C1981      C2019   1.476       .  S
H1982      C2023   1.082       .  S
C1983      N2007   1.355       .  A
C1983      H2012   1.081       .  S
C1983      C1987   1.478       .  S
Co1984     N2002   2.130       .  S
Co1984     N2024   2.070       .  S
Co1984    Cl2028   2.467       .  S
N1985      C2023   1.332       .  A
N1985      N1992   1.321       .  A
N1985     Co1986   2.071       .  S
Co1986     N1989   2.074       .  S
Co1986     N2006   2.109       .  S
Co1986     N1993   2.108       .  S
C1987      N2025   1.341       .  A
C1987      C2341   1.488       .  S
N1988      N1995   1.322       .  A
N1988      N2018   1.333       .  A
N1988     Co2021   2.115       .  S
N1989      N2007   1.322       .  A
N1989      N2025   1.319       .  A
N1990      C2019   1.346       .  A
N1990      N2000   1.321       .  A
H1991      C2016   1.081       .  S
N1992      N2013   1.332       .  A
N1993      N2011   1.320       .  A
N1993      N1998   1.334       .  A
C1994      N1998   1.360       .  A
C1994      C2022   1.446       .  S
C1994      C2281   1.482       .  S
N1995      C2010   1.330       .  A
N1995     Co2017   2.069       .  S
C1996      N2024   1.332       .  A
C1996      H2030   1.081       .  S
C1996      C1999   1.446       .  S
C1999      N2020   1.359       .  A
C1999      C2293   1.478       .  S
N2000      N2006   1.321       .  A
N2001      C2027   1.345       .  A
N2001      N2003   1.321       .  A
N2001     Co2017   2.086       .  S
N2002      C2016   1.358       .  A
N2003      N2031   1.324       .  A
N2003     Co2021   2.090       .  S
H2004      C2027   1.081       .  S
H2005      C2022   1.082       .  S
N2008      N2020   1.333       .  A
N2008      N2024   1.320       .  A
N2008     Co2017   2.111       .  S
C2009      N2013   1.359       .  A
C2009      C2023   1.444       .  S
C2009      C2392   1.475       .  S
C2010      H2014   1.082       .  S
C2010      C2029   1.442       .  S
N2011      C2022   1.329       .  A
C2015      N2031   1.347       .  A
C2015      C2027   1.462       .  S
C2015      C2305   1.475       .  S
Co2017    Cl2028   2.442       .  S
N2018      C2029   1.361       .  A
C2019      C2269   1.494       .  S
Co2021    Cl2028   2.468       .  S
C2029      C2353   1.476       .  S
N2032      H2064   1.040       .  S
N2032      C2037   1.353       .  A
N2032      C2036   1.352       .  A
N2033      C2040   1.352       .  A
N2033      C2041   1.352       .  A
N2034      H2065   1.036       .  S
N2034      C2039   1.355       .  A
N2034      C2038   1.355       .  A
N2035      C2042   1.353       .  A
N2035      C2043   1.353       .  A
C2036      C2044   1.386       .  A
C2036      C2052   1.414       .  A
C2037      C2053   1.415       .  A
C2037      C2045   1.387       .  A
C2038      C2046   1.387       .  A
C2038      C2055   1.422       .  A
C2039      C2054   1.422       .  A
C2039      C2047   1.387       .  A
C2040      C2052   1.414       .  A
C2040      C2048   1.386       .  A
C2041      C2055   1.415       .  A
C2041      C2049   1.387       .  A
C2042      C2050   1.385       .  A
C2042      C2053   1.414       .  A
C2043      C2051   1.387       .  A
C2043      C2054   1.418       .  A
C2044      C2045   1.377       .  A
C2044      H2056   1.082       .  S
C2045      H2057   1.083       .  S
C2046      C2047   1.380       .  A
C2046      H2058   1.082       .  S
C2047      H2059   1.082       .  S
C2048      C2049   1.369       .  A
C2048      H2060   1.082       .  S
C2049      H2061   1.082       .  S
C2050      C2051   1.372       .  A
C2050      H2930   1.082       .  S
C2051      H2931   1.082       .  S
C2052      C2425   1.489       .  S
C2053      C2416   1.490       .  S
C2054      C2272   1.494       .  S
C2055      C2284   1.490       .  S
H2062      C2918   1.082       .  S
H2063      C2919   1.082       .  S
N2066      H2098   1.023       .  S
N2066      C2071   1.356       .  A
N2066      C2070   1.354       .  A
N2067      C2074   1.354       .  A
N2067      C2075   1.354       .  A
N2068      H2099   1.023       .  S
N2068      C2073   1.357       .  A
N2068      C2072   1.354       .  A
N2069      C2076   1.350       .  A
N2069      C2077   1.351       .  A
C2070      C2078   1.386       .  A
C2070      C2086   1.414       .  A
C2071      C2087   1.416       .  A
C2071      C2079   1.387       .  A
C2072      C2080   1.386       .  A
C2072      C2089   1.415       .  A
C2073      C2088   1.418       .  A
C2073      C2081   1.387       .  A
C2074      C2086   1.417       .  A
C2074      C2082   1.386       .  A
C2075      C2089   1.418       .  A
C2075      C2083   1.386       .  A
C2076      C2084   1.387       .  A
C2076      C2087   1.415       .  A
C2077      C2085   1.386       .  A
C2077      C2088   1.414       .  A
C2078      C2079   1.374       .  A
C2078      H2958   1.082       .  S
C2079      H2959   1.082       .  S
C2080      C2081   1.375       .  A
C2080      H2092   1.082       .  S
C2081      H2093   1.082       .  S
C2082      C2083   1.376       .  A
C2082      H2094   1.082       .  S
C2083      H2095   1.082       .  S
C2084      C2085   1.373       .  A
C2084      H2096   1.082       .  S
C2085      H2097   1.082       .  S
C2086      C2296   1.490       .  S
C2087      C2437   1.488       .  S
C2088      C2452   1.491       .  S
C2089      C2308   1.489       .  S
H2090      C2946   1.082       .  S
H2091      C2947   1.082   1_545  S
N2100      H2132   1.038       .  S
N2100      C2105   1.351       .  A
N2100      C2104   1.354       .  A
N2101      C2108   1.350       .  A
N2101      C2109   1.349       .  A
N2102      H2133   1.038       .  S
N2102      C2107   1.354       .  A
N2102      C2106   1.352       .  A
N2103      C2110   1.352       .  A
N2103      C2111   1.352       .  A
C2104      C2112   1.386       .  A
C2104      C2120   1.414       .  A
C2105      C2121   1.415       .  A
C2105      C2113   1.388       .  A
C2106      C2114   1.387       .  A
C2106      C2123   1.414       .  A
C2107      C2122   1.416       .  A
C2107      C2115   1.388       .  A
C2108      C2120   1.411       .  A
C2108      C2116   1.386       .  A
C2109      C2123   1.410       .  A
C2109      C2117   1.386       .  A
C2110      C2118   1.386       .  A
C2110      C2121   1.414       .  A
C2111      C2119   1.385       .  A
C2111      C2122   1.414       .  A
C2112      C2113   1.376       .  A
C2112      H2124   1.082       .  S
C2113      H2125   1.082       .  S
C2114      C2115   1.376       .  A
C2114      H2126   1.082       .  S
C2115      H2127   1.082       .  S
C2116      C2117   1.371       .  A
C2116      H2128   1.082       .  S
C2117      H2129   1.082       .  S
C2118      C2119   1.375       .  A
C2118      H2998   1.082   1_545  S
C2119      H2999   1.082   1_545  S
C2120      C2257   1.488       .  S
C2121      C2245   1.488       .  S
C2122      C2464   1.492       .  S
C2123      C2473   1.482       .  S
H2130      C2986   1.082       .  S
H2131      C2987   1.082       .  S
N2134      H2166   1.039       .  S
N2134      C2139   1.352       .  A
N2134      C2138   1.351       .  A
N2135      C2142   1.349       .  A
N2135      C2143   1.349       .  A
N2136      H2167   1.039       .  S
N2136      C2141   1.352       .  A
N2136      C2140   1.352       .  A
N2137      C2144   1.350       .  A
N2137      C2145   1.349       .  A
C2138      C2146   1.386       .  A
C2138      C2154   1.411       .  A
C2139      C2155   1.413       .  A
C2139      C2147   1.387       .  A
C2140      C2148   1.387       .  A
C2140      C2157   1.412       .  A
C2141      C2156   1.413       .  A
C2141      C2149   1.387       .  A
C2142      C2154   1.408       .  A
C2142      C2150   1.386       .  A
C2143      C2157   1.409       .  A
C2143      C2151   1.386       .  A
C2144      C2152   1.386       .  A
C2144      C2155   1.412       .  A
C2145      C2153   1.386       .  A
C2145      C2156   1.411       .  A
C2146      C2147   1.376       .  A
C2146      H3026   1.082   1_545  S
C2147      H3027   1.082   1_545  S
C2148      C2149   1.376       .  A
C2148      H2160   1.082       .  S
C2149      H2161   1.082       .  S
C2150      C2151   1.374       .  A
C2150      H2162   1.082       .  S
C2151      H2163   1.082       .  S
C2152      C2153   1.374       .  A
C2152      H2164   1.082       .  S
C2153      H2165   1.082       .  S
C2154      C2224   1.479       .  S
C2155      C2485   1.488       .  S
C2156      C2500   1.486       .  S
C2157      C2233   1.482       .  S
H2158      C3014   1.082       .  S
H2159      C3015   1.082       .  S
C2168      N2186   1.351       .  A
C2168      C2205   1.456       .  S
C2168      C2377   1.478       .  S
N2169      N2186   1.326       .  A
N2169      N2191   1.318       .  A
N2169     Co2206   2.082       .  S
C2170      H2215   1.081       .  S
C2170      C2208   1.470       .  S
H2171      C2212   1.081       .  S
C2172      N2196   1.334       .  A
C2172      H2201   1.081       .  S
C2172      C2176   1.457       .  S
Co2173     N2191   2.070       .  S
Co2173     N2181   2.074       .  S
Co2173     N2213   2.079   1_655  S
Co2173     N2189   2.075   1_655  S
Co2173    Cl2217   2.438       .  S
N2174      C2212   1.346       .  A
N2174      N2181   1.320       .  A
N2174     Co2175   2.090       .  S
Co2175     N2178   2.091       .  S
Co2175     N2195   2.095   1_655  S
Co2175    Cl2217   2.462       .  S
C2176      N2214   1.354       .  A
C2176      C2236   1.476       .  S
N2177      N2184   1.317       .  A
N2177      N2207   1.324       .  A
N2177     Co2210   2.085       .  S
N2178      N2196   1.319       .  A
N2178      N2214   1.325       .  A
N2179      C2208   1.346       .  A
H2180      C2205   1.081       .  S
N2181      N2202   1.321       .  A
N2182      N2200   1.321       .  A
N2182      N2187   1.322       .  A
C2183      N2187   1.348       .  A
C2183      C2211   1.465       .  S
C2183      C2260   1.474       .  S
N2184      C2199   1.338       .  A
N2184     Co2206   2.074       .  S
C2185      H2219   1.079       .  S
C2185      C2188   1.457       .  S
C2188      N2209   1.348       .  A
C2188      C2365   1.471       .  S
N2189      N2195   1.320       .  A
N2190      C2216   1.336       .  A
N2190      N2192   1.319       .  A
N2191      C2205   1.334       .  A
N2192      N2220   1.327       .  A
H2193      C2216   1.082       .  S
H2194      C2211   1.082       .  S
N2196     Co2210   2.071       .  S
N2197      N2213   1.319       .  A
N2197     Co2206   2.078   1_455  S
C2198      N2202   1.345       .  A
C2198      C2212   1.462       .  S
C2198      C2329   1.468       .  S
C2199      H2203   1.082       .  S
C2199      C2218   1.461       .  S
N2200      C2211   1.342       .  A
C2204      N2220   1.355       .  A
C2204      C2216   1.458       .  S
C2204      C2248   1.474       .  S
Co2206    Cl2217   2.452       .  S
N2207      C2218   1.353       .  A
C2208      C2320   1.488       .  S
Co2210    Cl2217   2.436       .  S
C2218      C2221   1.475       .  S
C2221      C2222   1.404       .  A
C2221      C2226   1.413       .  A
C2222      C3091   1.397       .  A
C2222      H2231   1.084       .  S
C2223      C3090   1.395   1_545  A
C2223      C2224   1.409       .  A
C2223      S2227   1.803       .  S
C2224      C2225   1.402       .  A
C2225      C3094   1.399   1_545  A
C2225      H2232   1.084       .  S
C2226      C3093   1.400       .  A
C2226      S2228   1.804       .  S
S2227      H2230   1.406       .  S
S2228      H2229   1.406       .  S
C2233      C2234   1.398       .  A
C2233      C2238   1.412       .  A
C2234      C2235   1.397       .  A
C2234      H2243   1.083       .  S
C2235      C2236   1.419       .  A
C2235      S2239   1.809       .  S
C2236      C2237   1.403       .  A
C2237      C2238   1.400       .  A
C2237      H2244   1.084       .  S
C2238      S2240   1.804       .  S
S2239      H2242   1.407       .  S
S2240      H2241   1.406       .  S
C2245      C2246   1.405       .  A
C2245      C2250   1.414       .  A
C2246      C2247   1.401   1_545  A
C2246      H2255   1.084       .  S
C2247      C3116   1.409       .  A
C2247      S2251   1.803       .  S
C2248      C3115   1.410       .  A
C2248      C2249   1.404       .  A
C2249      C3118   1.398       .  A
C2249      H2256   1.084       .  S
C2250      C3117   1.397       .  A
C2250      S3120   1.805       .  S
S2251      H3122   1.406       .  S
S2252      C3118   1.806       .  S
S2252      H3121   1.405       .  S
H2253      S3120   1.406       .  S
H2254      S3119   1.406       .  S
C2257      C2258   1.401       .  A
C2257      C2262   1.414       .  A
C2258      C2259   1.398       .  A
C2258      H2267   1.084       .  S
C2259      C2260   1.417       .  A
C2259      S2263   1.803       .  S
C2260      C2261   1.400       .  A
C2261      C2262   1.400       .  A
C2261      H2268   1.084       .  S
C2262      S2264   1.803       .  S
S2263      H2266   1.403       .  S
S2264      H2265   1.406       .  S
C2269      C2270   1.408   1_545  A
C2269      C3142   1.417       .  A
C2270      C2271   1.401       .  A
C2270      H2279   1.083       .  S
C2271      C3140   1.411       .  A
C2271      S2275   1.805       .  S
C2272      C3139   1.410       .  A
C2272      C2273   1.404       .  A
C2273      C2274   1.409       .  A
C2273      H2280   1.083       .  S
C2274      C3137   1.418       .  A
C2274      S2276   1.804       .  S
S2275      H3146   1.405       .  S
S2276      H3145   1.407       .  S
H2277      S3144   1.407       .  S
H2278      S3143   1.405       .  S
C2281      C2282   1.402       .  A
C2281      C2286   1.414       .  A
C2282      C2283   1.391       .  A
C2282      H2291   1.079       .  S
C2283      C2284   1.409       .  A
C2283      S2287   1.807       .  S
C2284      C2285   1.409       .  A
C2285      C2286   1.410       .  A
C2285      H2292   1.083       .  S
C2286      S2288   1.800       .  S
S2287      H2290   1.403       .  S
S2288      H2289   1.406       .  S
C2293      C2294   1.404       .  A
C2293      C2298   1.413       .  A
C2294      C3163   1.407   1_545  A
C2294      H3171   1.084       .  S
C2295      C3162   1.406       .  A
C2295      C2296   1.415       .  A
C2295      S2299   1.803       .  S
C2296      C3165   1.401       .  A
C2297      C3164   1.401       .  A
C2297      C2298   1.397   1_565  A
C2297      H2304   1.084       .  S
C2298      S2300   1.804       .  S
S2299      H2302   1.404       .  S
S2300      H2301   1.407       .  S
H2303      C3162   1.084       .  S
C2305      C2306   1.404       .  A
C2305      C2310   1.411       .  A
C2306      C2307   1.405       .  A
C2306      H2315   1.084       .  S
C2307      C2308   1.415       .  A
C2307      S2311   1.805       .  S
C2308      C2309   1.402       .  A
C2309      C2310   1.398       .  A
C2309      H2316   1.084       .  S
C2310      S2312   1.804       .  S
S2311      H2314   1.404       .  S
S2312      H2313   1.406       .  S
C2317      C2318   1.395       .  A
C2317      C2322   1.413       .  A
C2318      C2319   1.396       .  A
C2318      H2327   1.083       .  S
C2319      C2320   1.419       .  A
C2319      S2323   1.798       .  S
C2320      C2321   1.406       .  A
C2321      C2322   1.405       .  A
C2321      H2328   1.083       .  S
C2322      S2324   1.806       .  S
S2323      H2326   1.407       .  S
S2324      H2325   1.403       .  S
C2329      C2330   1.400       .  A
C2329      C2334   1.409       .  A
C2330      C2331   1.401       .  A
C2330      H2339   1.084       .  S
C2331      C2332   1.418       .  A
C2331      S2335   1.805       .  S
C2332      C2333   1.404       .  A
C2333      C2334   1.398       .  A
C2333      H2340   1.084       .  S
C2334      S2336   1.803       .  S
S2335      H2338   1.406       .  S
S2336      H2337   1.406       .  S
C2341      C2342   1.406       .  A
C2341      C2346   1.415       .  A
C2342      C2343   1.412       .  A
C2342      H2351   1.083       .  S
C2343      C2344   1.418       .  A
C2343      S2347   1.804       .  S
C2344      C2345   1.400       .  A
C2345      C2346   1.399       .  A
C2345      H2352   1.084       .  S
C2346      S2348   1.802       .  S
S2347      H2350   1.404       .  S
S2348      H2349   1.407       .  S
C2353      C2354   1.405       .  A
C2353      C2358   1.412       .  A
C2354      C2355   1.409       .  A
C2354      H2363   1.084       .  S
C2355      C2356   1.416       .  A
C2355      S2359   1.804       .  S
C2356      C2357   1.402       .  A
C2357      C2358   1.395       .  A
C2357      H2364   1.084       .  S
C2358      S2360   1.804       .  S
S2359      H2362   1.403       .  S
S2360      H2361   1.407       .  S
C2365      C2366   1.399       .  A
C2365      C2370   1.412       .  A
C2366      C2367   1.399       .  A
C2366      H2375   1.084       .  S
C2367      C2368   1.416       .  A
C2367      S3239   1.804       .  S
C2368      C2369   1.406       .  A
C2369      C2370   1.401       .  A
C2369      H2376   1.083       .  S
C2370      S2372   1.806       .  S
S2371      C3235   1.806       .  S
S2371      H2374   1.406       .  S
S2372      H2373   1.404       .  S
C2377      C2378   1.403       .  A
C2377      C2382   1.415       .  A
C2378      C2379   1.390       .  A
C2378      H2387   1.080       .  S
C2379      C2380   1.409       .  A
C2379      S2383   1.806       .  S
C2380      C2381   1.402       .  A
C2381      C2382   1.402       .  A
C2381      H3256   1.084       .  S
C2382      S3252   1.798       .  S
S2383      H2386   1.404       .  S
S2384      C3250   1.798   1_545  S
S2384      H2385   1.407       .  S
H2388      C3249   1.084       .  S
C2389      C2390   1.408       .  A
C2389      C2394   1.416   1_545  A
C2390      C2391   1.397       .  A
C2390      H2399   1.084       .  S
C2391      C2392   1.407       .  A
C2391      S2395   1.803       .  S
C2392      C2393   1.406       .  A
C2393      C2394   1.408   1_545  A
C2393      H2400   1.084       .  S
C2394      S3264   1.802       .  S
S2395      H2398   1.406       .  S
S2396      C3262   1.803       .  S
S2396      H2397   1.406       .  S
C2401      C2402   1.408   1_545  A
C2401      C2406   1.413       .  A
C2402      C2403   1.412   1_565  A
C2402      H2411   1.083       .  S
C2403      C2404   1.415       .  A
C2403      S2407   1.801   1_545  S
C2404      C2405   1.404       .  A
C2405      C2406   1.400       .  A
C2405      H2412   1.083       .  S
C2406      S2408   1.805       .  S
S2407      H2410   1.406       .  S
S2408      H2409   1.405       .  S
C2413      C2414   1.404       .  A
C2413      C3286   1.410   1_545  A
C2414      C2415   1.398   1_545  A
C2414      H2423   1.082       .  S
C2415      C3284   1.407       .  A
C2415      S2419   1.807       .  S
C2416      C3283   1.408       .  A
C2416      C2417   1.404       .  A
C2417      C2418   1.405       .  A
C2417      H2424   1.083       .  S
C2418      C3281   1.410       .  A
C2418      S2420   1.806       .  S
S2419      H3290   1.407   1_565  S
S2420      H3289   1.407       .  S
H2421      S3288   1.407       .  S
H2422      S3287   1.407       .  S
C2425      C2426   1.404       .  A
C2425      C2430   1.412       .  A
C2426      C2427   1.401       .  A
C2426      H2435   1.084       .  S
C2427      C2428   1.412       .  A
C2427      S2431   1.804       .  S
C2428      C2429   1.407       .  A
C2429      C2430   1.398       .  A
C2429      H2436   1.083       .  S
C2430      S2432   1.805       .  S
S2431      H2434   1.406       .  S
S2432      H2433   1.406       .  S
C2437      C2438   1.401       .  A
C2437      C2442   1.415       .  A
C2438      C3307   1.395       .  A
C2438      H2447   1.084       .  S
C2439      C3306   1.394       .  A
C2439      C2440   1.414   1_565  A
C2439      S2443   1.803       .  S
C2440      C3309   1.402       .  A
C2441      C3308   1.401       .  A
C2441      C2442   1.402       .  A
C2441      H2448   1.084       .  S
C2442      S2444   1.804       .  S
S2443      H2446   1.404   1_565  S
S2444      H2445   1.405       .  S
C2449      C2450   1.404       .  A
C2449      C2454   1.410       .  A
C2450      C2451   1.400       .  A
C2450      H2459   1.084       .  S
C2451      C2452   1.415       .  A
C2451      S2455   1.806       .  S
C2452      C2453   1.405       .  A
C2453      C2454   1.402       .  A
C2453      H2460   1.084       .  S
C2454      S2456   1.803       .  S
S2455      H2458   1.405       .  S
S2456      H2457   1.406       .  S
C2461      C2462   1.405       .  A
C2461      C2466   1.416       .  A
C2462      C3331   1.404       .  A
C2462      H2471   1.084       .  S
C2463      C3330   1.403       .  A
C2463      C2464   1.414       .  A
C2463      S2467   1.804       .  S
C2464      C2465   1.402       .  A
C2465      C3334   1.399   1_545  A
C2465      H2472   1.084       .  S
C2466      C3333   1.399       .  A
C2466      S2468   1.803       .  S
S2467      H2470   1.406       .  S
S2468      H2469   1.407       .  S
C2473      C2474   1.401       .  A
C2473      C2478   1.410       .  A
C2474      C2475   1.397       .  A
C2474      H2483   1.084       .  S
C2475      C2476   1.416       .  A
C2475      S2479   1.803       .  S
C2476      C2477   1.403       .  A
C2477      C2478   1.398       .  A
C2477      H2484   1.084       .  S
C2478      S2480   1.804       .  S
S2479      H2482   1.407       .  S
S2480      H2481   1.406       .  S
C2485      C2486   1.405       .  A
C2485      C2490   1.414       .  A
C2486      C3355   1.399   1_545  A
C2486      H2495   1.084       .  S
C2487      C3354   1.402       .  A
C2487      C2488   1.412       .  A
C2487      S2491   1.805       .  S
C2488      C2489   1.404       .  A
C2489      C3358   1.396       .  A
C2489      H2496   1.084       .  S
C2490      C3357   1.398       .  A
C2490      S2492   1.807       .  S
S2491      H2494   1.405       .  S
S2492      H2493   1.405       .  S
C2497      C2498   1.404       .  A
C2497      C2502   1.409       .  A
C2498      C2499   1.395       .  A
C2498      H2507   1.084       .  S
C2499      C2500   1.413       .  A
C2499      S2503   1.806       .  S
C2500      C2501   1.405       .  A
C2501      C2502   1.400       .  A
C2501      H2508   1.084       .  S
C2502      S2504   1.803       .  S
S2503      H2506   1.406       .  S
S2504      H2505   1.406       .  S
C2509      C2510   1.396       .  A
C2509      C2514   1.412       .  A
C2510      C2511   1.396       .  A
C2510      H2519   1.083       .  S
C2511      C2512   1.425       .  A
C2511      S2515   1.812       .  S
C2512      C2513   1.408       .  A
C2513      C2514   1.403       .  A
C2513      H2520   1.082       .  S
C2514      S2516   1.803       .  S
S2515      H2518   1.406       .  S
S2516      H2517   1.405       .  S
C2521      C2522   1.404       .  A
C2521      C2526   1.408       .  A
C2522      C2523   1.405       .  A
C2522      H2531   1.084       .  S
C2523      C2524   1.418       .  A
C2523      S2527   1.798       .  S
C2524      C2525   1.408       .  A
C2525      C2526   1.391       .  A
C2525      H2532   1.083       .  S
C2526      S2528   1.806       .  S
S2527      H2530   1.408       .  S
S2528      H2529   1.406       .  S
C2533      C2534   1.403       .  A
C2533      C2538   1.413       .  A
C2534      C2535   1.402       .  A
C2534      H2543   1.084       .  S
C2535      C2536   1.412       .  A
C2535      S2539   1.803       .  S
C2536      C2537   1.399       .  A
C2537      C2538   1.394       .  A
C2537      H2544   1.084       .  S
C2538      S2540   1.804       .  S
S2539      H2542   1.406       .  S
S2540      H2541   1.407       .  S
C2545      C2546   1.402       .  A
C2545      C2550   1.414       .  A
C2546      C2547   1.396       .  A
C2546      H2555   1.084       .  S
C2547      C2548   1.412       .  A
C2547      S2551   1.804       .  S
C2548      C2549   1.401       .  A
C2549      C2550   1.401       .  A
C2549      H2556   1.084       .  S
C2550      S2552   1.804       .  S
S2551      H2554   1.407       .  S
S2552      H2553   1.405       .  S
C2557      C2558   1.400       .  A
C2557      C2562   1.413   1_545  A
C2558      C2559   1.395       .  A
C2558      H2567   1.084       .  S
C2559      C2560   1.414       .  A
C2559      S2563   1.805       .  S
C2560      C2561   1.400       .  A
C2561      C2562   1.400   1_545  A
C2561      H2568   1.084   1_545  S
C2562      S3432   1.805       .  S
S2563      H2566   1.407       .  S
S2564      C3430   1.804       .  S
S2564      H2565   1.406       .  S
C2569      C2570   1.404   1_545  A
C2569      C2574   1.412       .  A
C2570      C2571   1.400   1_565  A
C2570      H2579   1.084       .  S
C2571      C2572   1.410       .  A
C2571      S2575   1.799   1_545  S
C2572      C2573   1.403       .  A
C2573      C2574   1.394       .  A
C2573      H2580   1.085       .  S
C2574      S2576   1.806       .  S
S2575      H2578   1.405       .  S
S2576      H2577   1.405       .  S
C2581      C2582   1.405       .  A
C2581      C2586   1.415       .  A
C2582      C2583   1.406       .  A
C2582      H2591   1.084       .  S
C2583      C2584   1.415       .  A
C2583      S2587   1.803       .  S
C2584      C2585   1.400       .  A
C2585      C2586   1.387       .  A
C2585      H2592   1.085       .  S
C2586      S2588   1.805       .  S
S2587      H2590   1.405       .  S
S2588      H2589   1.407       .  S
C2593      C2594   1.402       .  A
C2593      C2598   1.410       .  A
C2594      C2595   1.406       .  A
C2594      H2603   1.084       .  S
C2595      C2596   1.420       .  A
C2595      S2599   1.799       .  S
C2596      C2597   1.409       .  A
C2597      C2598   1.394       .  A
C2597      H2604   1.080       .  S
C2598      S2600   1.806       .  S
S2599      H2602   1.408       .  S
S2600      H2601   1.406       .  S
N2605      H2637   1.040       .  S
N2605      C2609   1.350       .  A
N2606      C2614   1.352       .  A
N2607      H2638   1.040       .  S
N2607      C2612   1.352       .  A
N2608      C2616   1.344       .  A
C2609      C2617   1.387   1_565  A
C2609      C2625   1.413       .  A
C2610      C2626   1.415       .  A
C2610      C2618   1.388       .  A
C2611      C2619   1.388       .  A
C2611      C2628   1.415   1_545  A
C2612      C2627   1.412       .  A
C2612      C2620   1.386       .  A
C2613      C2625   1.414       .  A
C2613      C2621   1.385       .  A
C2614      C2628   1.414       .  A
C2614      C2622   1.386       .  A
C2615      C2623   1.386       .  A
C2615      C2626   1.405       .  A
C2616      C2624   1.387       .  A
C2616      C2627   1.404       .  A
C2617      H2629   1.083       .  S
C2618      H2630   1.082       .  S
C2619      H2631   1.083       .  S
C2620      H2632   1.082       .  S
C2621      H2633   1.082       .  S
C2622      H2634   1.082       .  S
C2623      H2635   1.082       .  S
C2624      H2636   1.082       .  S
C2625      C3461   1.489       .  S
C2626      C3437   1.477       .  S
C2627      C3425   1.479       .  S
C2628      C3452   1.495       .  S
N2639      H2671   1.036       .  S
N2639      C2644   1.354       .  A
N2639      C2643   1.352       .  A
N2640      C2648   1.352       .  A
N2641      H2672   1.041       .  S
N2641      C2646   1.353       .  A
N2641      C2645   1.351       .  A
N2642      C2650   1.347       .  A
C2643      C2651   1.386       .  A
C2643      C2659   1.414       .  A
C2644      C2660   1.416       .  A
C2644      C2652   1.387       .  A
C2645      C2653   1.387       .  A
C2645      C2662   1.413       .  A
C2646      C2661   1.413       .  A
C2646      C2654   1.387       .  A
C2647      C2659   1.412       .  A
C2647      C2655   1.386       .  A
C2648      C2662   1.413       .  A
C2648      C2656   1.385       .  A
C2649      C2657   1.386       .  A
C2649      C2660   1.410       .  A
C2650      C2658   1.386       .  A
C2650      C2661   1.407       .  A
C2651      C2652   1.375       .  A
C2651      H2663   1.082       .  S
C2652      H2664   1.082       .  S
C2653      C2654   1.376       .  A
C2653      H2665   1.082       .  S
C2654      H2666   1.082       .  S
C2655      H2667   1.082       .  S
C2656      H2668   1.082       .  S
C2657      H2669   1.082       .  S
C2658      H2670   1.082       .  S
C2659      C3377   1.486       .  S
C2660      C3404   1.484       .  S
C2661      C3413   1.481       .  S
C2662      C3389   1.492       .  S
C2673      N2691   1.355       .  A
C2673      C2710   1.463       .  S
C2673      C3464   1.496       .  S
N2674      N2691   1.328       .  A
N2674      N2696   1.318       .  A
N2674     Co2711   2.098       .  S
C2675      N2700   1.347       .  A
C2675      H2720   1.081       .  S
C2675      C2713   1.464       .  S
H2676      C2717   1.081       .  S
C2677      N2701   1.342       .  A
C2677      H2706   1.082       .  S
C2677      C2681   1.464       .  S
Co2678     N2696   2.077       .  S
Co2678     N2686   2.066       .  S
Co2678     N2718   2.055       .  S
Co2678     N2694   2.070       .  S
Co2678    Cl2722   2.431       .  S
N2679      C2717   1.345       .  A
N2679      N2686   1.318       .  A
N2679     Co2680   2.087       .  S
Co2680     N2683   2.080       .  S
Co2680     N2700   2.092       .  S
Co2680     N2687   2.076       .  S
Co2680    Cl2722   2.459       .  S
C2681      N2719   1.350       .  A
C2681      C3365   1.476       .  S
N2682      N2689   1.320       .  A
N2682      N2712   1.324       .  A
N2682     Co2715   2.087       .  S
N2683      N2701   1.320       .  A
N2683      N2719   1.321       .  A
N2684      C2713   1.344       .  A
N2684      N2694   1.320       .  A
H2685      C2710   1.080       .  S
N2686      N2707   1.319       .  A
N2687      N2705   1.320       .  A
N2687      N2692   1.322       .  A
C2688      N2692   1.348       .  A
C2688      C2716   1.463       .  S
C2688      C3344   1.471       .  S
N2689      C2704   1.339       .  A
N2689     Co2711   2.085       .  S
C2690      N2718   1.328       .  A
C2690      H2724   1.080       .  S
C2690      C2693   1.448       .  S
C2693      N2714   1.359       .  A
C2693      C3449   1.483       .  S
N2694      N2700   1.318       .  A
N2695      C2721   1.344       .  A
N2695      N2697   1.322       .  A
N2695     Co2711   2.095       .  S
N2696      C2710   1.337       .  A
N2697      N2725   1.323       .  A
N2697     Co2715   2.088       .  S
H2698      C2721   1.082       .  S
H2699      C2716   1.082       .  S
N2701     Co2715   2.089       .  S
N2702      N2714   1.332       .  A
N2702      N2718   1.318       .  A
N2702     Co2711   2.107       .  S
C2703      N2707   1.344       .  A
C2703      C2717   1.462       .  S
C2703      C3416   1.466       .  S
C2704      H2708   1.082       .  S
C2704      C2723   1.464       .  S
N2705      C2716   1.341       .  A
N2705     Co2715   2.086       .  S
C2709      N2725   1.349       .  A
C2709      C2721   1.464       .  S
C2709      C3329   1.484       .  S
Co2711    Cl2722   2.466       .  S
N2712      C2723   1.351       .  A
C2713      C3401   1.472       .  S
Co2715    Cl2722   2.437       .  S
C2723      C3356   1.474       .  S
C2726      N2744   1.354       .  A
C2726      C2763   1.444       .  S
C2726      C3440   1.466       .  S
N2727      N2744   1.329       .  A
N2727      N2749   1.317       .  A
N2727     Co2764   2.092       .  S
C2728      N2753   1.348       .  A
C2728      H2773   1.081       .  S
C2728      C2766   1.475       .  S
H2729      C2770   1.080       .  S
C2730      N2754   1.341       .  A
C2730      H2759   1.082       .  S
C2730      C2734   1.462       .  S
Co2731     N2749   2.050       .  S
Co2731     N2739   2.066       .  S
Co2731     N2771   2.057       .  S
Co2731     N2747   2.063       .  S
Co2731    Cl2775   2.430       .  S
N2732      C2770   1.348       .  A
N2732      N2739   1.317       .  A
N2732     Co2733   2.105       .  S
Co2733     N2736   2.081       .  S
Co2733     N2753   2.100       .  S
Co2733     N2740   2.089       .  S
Co2733    Cl2775   2.467       .  S
C2734      N2772   1.350       .  A
C2734      C3317   1.475       .  S
N2735      N2742   1.319       .  A
N2735      N2765   1.324       .  A
N2735     Co2768   2.087       .  S
N2736      N2754   1.320       .  A
N2736      N2772   1.323       .  A
N2737      C2766   1.343       .  A
N2737      N2747   1.318       .  A
H2738      C2763   1.081       .  S
N2739      N2760   1.319       .  A
N2740      N2758   1.320       .  A
N2740      N2745   1.324       .  A
C2741      N2745   1.353       .  A
C2741      C2769   1.461       .  S
C2741      C3296   1.472       .  S
N2742      C2757   1.337       .  A
N2742     Co2764   2.080       .  S
C2743      N2771   1.329       .  A
C2743      H2777   1.078       .  S
C2743      C2746   1.442       .  S
C2746      N2767   1.352       .  A
C2746      C3428   1.459       .  S
N2747      N2753   1.316       .  A
N2748      C2774   1.342       .  A
N2748      N2750   1.318       .  A
N2748     Co2764   2.087       .  S
N2749      C2763   1.329       .  A
N2750      N2778   1.324       .  A
N2750     Co2768   2.084       .  S
H2751      C2774   1.082       .  S
H2752      C2769   1.082       .  S
N2754     Co2768   2.089       .  S
N2755      N2767   1.328       .  A
N2755      N2771   1.320       .  A
N2755     Co2764   2.092       .  S
C2756      N2760   1.346       .  A
C2756      C2770   1.476       .  S
C2756      C3392   1.493       .  S
C2757      H2761   1.082       .  S
C2757      C2776   1.461       .  S
N2758      C2769   1.335       .  A
N2758     Co2768   2.081       .  S
C2762      N2778   1.352       .  A
C2762      C2774   1.465       .  S
C2762      C3281   1.481       .  S
Co2764    Cl2775   2.457       .  S
N2765      C2776   1.352       .  A
C2766      C3380   1.494       .  S
Co2768    Cl2775   2.432       .  S
C2776      C3308   1.473       .  S
N2779      H2811   1.042   1_565  S
N2779      C2784   1.353       .  A
N2780      C2787   1.355       .  A
N2780      C2788   1.356       .  A
N2781      H2812   1.038       .  S
N2781      C2786   1.354   1_545  A
N2782      C2789   1.350   1_565  A
N2782      C2790   1.346   1_565  A
C2783      C2791   1.387       .  A
C2783      C2799   1.414       .  A
C2784      C2800   1.415       .  A
C2784      C2792   1.387       .  A
C2785      C2793   1.386       .  A
C2785      C2802   1.414       .  A
C2786      C2801   1.420       .  A
C2786      C2794   1.389       .  A
C2787      C2799   1.423       .  A
C2787      C2795   1.387       .  A
C2788      C2802   1.423       .  A
C2788      C2796   1.386       .  A
C2789      C2797   1.386       .  A
C2789      C2800   1.413   1_545  A
C2790      C2798   1.386       .  A
C2790      C2801   1.409   1_545  A
C2791      H2803   1.082       .  S
C2792      H2804   1.082       .  S
C2793      H2805   1.082       .  S
C2794      H2806   1.082       .  S
C2795      C2796   1.383       .  A
C2795      H2807   1.082       .  S
C2796      H2808   1.082       .  S
C2797      C2798   1.378       .  A
C2797      H2809   1.082       .  S
C2798      H2810   1.082       .  S
C2799      C3257   1.504       .  S
C2800      C3236   1.498       .  S
C2801      C3248   1.483       .  S
C2802      C3269   1.498       .  S
N2813      H2845   1.038       .  S
N2813      C2818   1.350   1_554  A
N2813      C2817   1.354       .  A
N2814      C2821   1.350       .  A
N2814      C2822   1.347       .  A
N2815      H2846   1.035   1_556  S
N2815      C2820   1.356       .  A
N2815      C2819   1.354   1_556  A
N2816      C2823   1.355       .  A
N2816      C2824   1.356       .  A
C2817      C2825   1.387       .  A
C2817      C2833   1.414       .  A
C2818      C2834   1.411       .  A
C2818      C2826   1.387       .  A
C2819      C2827   1.388       .  A
C2819      C2836   1.419       .  A
C2820      C2835   1.417       .  A
C2820      C2828   1.386       .  A
C2821      C2833   1.409       .  A
C2821      C2829   1.386       .  A
C2822      C2836   1.409       .  A
C2822      C2830   1.387       .  A
C2823      C2831   1.386       .  A
C2823      C2834   1.421       .  A
C2824      C2832   1.386       .  A
C2824      C2835   1.424       .  A
C2825      C2826   1.372   1_554  A
C2825      H2837   1.082       .  S
C2826      H2838   1.082       .  S
C2827      C2828   1.371   1_554  A
C2827      H2839   1.082       .  S
C2828      H2840   1.081       .  S
C2829      C2830   1.373       .  A
C2829      H2841   1.082       .  S
C2830      H2842   1.082       .  S
C2831      C2832   1.382       .  A
C2831      H2843   1.082       .  S
C2832      H2844   1.082       .  S
C2833      C3200   1.488       .  S
C2834      C3224   1.491       .  S
C2835      C3212   1.502       .  S
C2836      C3185   1.480       .  S
C2847      N2865   1.337       .  A
C2847      C2884   1.484       .  S
C2847      C3272   1.489       .  S
N2848      N2865   1.317       .  A
N2848      N2870   1.322       .  A
N2848     Co2885   2.057       .  S
C2849      N2874   1.348       .  A
C2849      H2894   1.080       .  S
C2849      C2887   1.477       .  S
H2850      C2891   1.081       .  S
C2851      N2875   1.358       .  A
C2851      H2880   1.081       .  S
C2851      C2855   1.484       .  S
Co2852     N2870   2.138       .  S
Co2852     N2892   2.067       .  S
Co2852    Cl2896   2.469       .  S
N2853      C2891   1.332       .  A
N2853      N2860   1.322       .  A
N2853     Co2854   2.075       .  S
Co2854     N2857   2.071       .  S
Co2854     N2874   2.102       .  S
Co2854     N2861   2.114       .  S
C2855      N2893   1.340       .  A
C2855      C3209   1.496       .  S
N2856      N2863   1.321       .  A
N2856      N2886   1.333       .  A
N2856     Co2889   2.107       .  S
N2857      N2875   1.322       .  A
N2857      N2893   1.319       .  A
N2858      C2887   1.347       .  A
N2858      N2868   1.321       .  A
H2859      C2884   1.081       .  S
N2860      N2881   1.333       .  A
N2861      N2879   1.319       .  A
N2861      N2866   1.334       .  A
C2862      N2866   1.362       .  A
C2862      C2890   1.443       .  S
C2862      C3149   1.483       .  S
N2863      C2878   1.331       .  A
N2863     Co2885   2.070       .  S
C2864      N2892   1.332       .  A
C2864      H2898   1.082       .  S
C2864      C2867   1.445       .  S
C2867      N2888   1.358       .  A
C2867      C3161   1.475       .  S
N2868      N2874   1.320       .  A
N2869      C2895   1.346       .  A
N2869      N2871   1.321       .  A
N2869     Co2885   2.091       .  S
N2870      C2884   1.359       .  A
N2871      N2899   1.321       .  A
N2871     Co2889   2.077       .  S
H2872      C2895   1.081       .  S
H2873      C2890   1.082       .  S
N2876      N2888   1.332       .  A
N2876      N2892   1.321       .  A
N2876     Co2885   2.107       .  S
C2877      N2881   1.360       .  A
C2877      C2891   1.443       .  S
C2877      C3260   1.477       .  S
C2878      H2882   1.082       .  S
C2878      C2897   1.443       .  S
N2879      C2890   1.326       .  A
C2883      N2899   1.343       .  A
C2883      C2895   1.464       .  S
C2883      C3173   1.470       .  S
Co2885    Cl2896   2.441       .  S
N2886      C2897   1.359       .  A
C2887      C3137   1.496       .  S
Co2889    Cl2896   2.468       .  S
C2897      C3221   1.474       .  S
N2900      H2932   1.034       .  S
N2900      C2905   1.351       .  A
N2900      C2904   1.353       .  A
N2901      C2908   1.352       .  A
N2901      C2909   1.350       .  A
N2902      H2933   1.033       .  S
N2902      C2907   1.356       .  A
N2902      C2906   1.354       .  A
N2903      C2910   1.351       .  A
N2903      C2911   1.353       .  A
C2904      C2912   1.386       .  A
C2904      C2920   1.411       .  A
C2905      C2921   1.413       .  A
C2905      C2913   1.388       .  A
C2906      C2914   1.387       .  A
C2906      C2923   1.419       .  A
C2907      C2922   1.420       .  A
C2907      C2915   1.387       .  A
C2908      C2920   1.410       .  A
C2908      C2916   1.385       .  A
C2909      C2923   1.412       .  A
C2909      C2917   1.387       .  A
C2910      C2918   1.387       .  A
C2910      C2921   1.415       .  A
C2911      C2919   1.386       .  A
C2911      C2922   1.415       .  A
C2912      C2913   1.376       .  A
C2912      H2924   1.082       .  S
C2913      H2925   1.082       .  S
C2914      C2915   1.379       .  A
C2914      H2926   1.082       .  S
C2915      H2927   1.082       .  S
C2916      C2917   1.370       .  A
C2916      H2928   1.082       .  S
C2917      H2929   1.082       .  S
C2918      C2919   1.373       .  A
C2920      C3293   1.483       .  S
C2921      C3284   1.483       .  S
C2922      C3140   1.496       .  S
C2923      C3152   1.483       .  S
N2934      H2966   1.035       .  S
N2934      C2939   1.353       .  A
N2934      C2938   1.353       .  A
N2935      C2942   1.354       .  A
N2935      C2943   1.353       .  A
N2936      H2967   1.034       .  S
N2936      C2941   1.355       .  A
N2936      C2940   1.352       .  A
N2937      C2944   1.350       .  A
N2937      C2945   1.352       .  A
C2938      C2946   1.386       .  A
C2938      C2954   1.412       .  A
C2939      C2955   1.414       .  A
C2939      C2947   1.387       .  A
C2940      C2948   1.387       .  A
C2940      C2957   1.414       .  A
C2941      C2956   1.416       .  A
C2941      C2949   1.387       .  A
C2942      C2954   1.418       .  A
C2942      C2950   1.386       .  A
C2943      C2957   1.417       .  A
C2943      C2951   1.387       .  A
C2944      C2952   1.387       .  A
C2944      C2955   1.414       .  A
C2945      C2953   1.386       .  A
C2945      C2956   1.414       .  A
C2946      C2947   1.373       .  A
C2948      C2949   1.376       .  A
C2948      H2960   1.082       .  S
C2949      H2961   1.082       .  S
C2950      C2951   1.378       .  A
C2950      H2962   1.082       .  S
C2951      H2963   1.082       .  S
C2952      C2953   1.373       .  A
C2952      H2964   1.082       .  S
C2953      H2965   1.082       .  S
C2954      C3164   1.491       .  S
C2955      C3305   1.487       .  S
C2956      C3320   1.493       .  S
C2957      C3176   1.487       .  S
N2968      H3000   1.037       .  S
N2968      C2973   1.353       .  A
N2968      C2972   1.354       .  A
N2969      C2976   1.353       .  A
N2969      C2977   1.351       .  A
N2970      H3001   1.038       .  S
N2970      C2975   1.355       .  A
N2970      C2974   1.352       .  A
N2971      C2978   1.351       .  A
N2971      C2979   1.352       .  A
C2972      C2980   1.387       .  A
C2972      C2988   1.417       .  A
C2973      C2989   1.417       .  A
C2973      C2981   1.387       .  A
C2974      C2982   1.388       .  A
C2974      C2991   1.416       .  A
C2975      C2990   1.416       .  A
C2975      C2983   1.387       .  A
C2976      C2988   1.416       .  A
C2976      C2984   1.386       .  A
C2977      C2991   1.412       .  A
C2977      C2985   1.386       .  A
C2978      C2986   1.387       .  A
C2978      C2989   1.414       .  A
C2979      C2987   1.385       .  A
C2979      C2990   1.412       .  A
C2980      C2981   1.377       .  A
C2980      H2992   1.082       .  S
C2981      H2993   1.082       .  S
C2982      C2983   1.377       .  A
C2982      H2994   1.082       .  S
C2983      H2995   1.082       .  S
C2984      C2985   1.372       .  A
C2984      H2996   1.082       .  S
C2985      H2997   1.082       .  S
C2986      C2987   1.373       .  A
C2988      C3125   1.495       .  S
C2989      C3113   1.487       .  S
C2990      C3332   1.491       .  S
C2991      C3341   1.482       .  S
N3002      H3034   1.038       .  S
N3002      C3007   1.353       .  A
N3002      C3006   1.351       .  A
N3003      C3010   1.351       .  A
N3003      C3011   1.351       .  A
N3004      H3035   1.038       .  S
N3004      C3009   1.353       .  A
N3004      C3008   1.351       .  A
N3005      C3012   1.350       .  A
N3005      C3013   1.349       .  A
C3006      C3014   1.386       .  A
C3006      C3022   1.411       .  A
C3007      C3023   1.414       .  A
C3007      C3015   1.387       .  A
C3008      C3016   1.386       .  A
C3008      C3025   1.412       .  A
C3009      C3024   1.414       .  A
C3009      C3017   1.387       .  A
C3010      C3022   1.412       .  A
C3010      C3018   1.386       .  A
C3011      C3025   1.413       .  A
C3011      C3019   1.386       .  A
C3012      C3020   1.386       .  A
C3012      C3023   1.412       .  A
C3013      C3021   1.387       .  A
C3013      C3024   1.412       .  A
C3014      C3015   1.375       .  A
C3016      C3017   1.376       .  A
C3016      H3028   1.082       .  S
C3017      H3029   1.082       .  S
C3018      C3019   1.375       .  A
C3018      H3030   1.082       .  S
C3019      H3031   1.082       .  S
C3020      C3021   1.374       .  A
C3020      H3032   1.082       .  S
C3021      H3033   1.082       .  S
C3022      C3092   1.484       .  S
C3023      C3353   1.488       .  S
C3024      C3368   1.488       .  S
C3025      C3101   1.487       .  S
C3036      N3054   1.354       .  A
C3036      C3073   1.456       .  S
C3036      C3245   1.483       .  S
N3037      N3054   1.328       .  A
N3037      N3059   1.317       .  A
N3037     Co3074   2.095       .  S
C3038      H3083   1.081       .  S
C3038      C3076   1.462       .  S
H3039      C3080   1.081       .  S
C3040      N3064   1.337       .  A
C3040      H3069   1.081       .  S
C3040      C3044   1.460       .  S
Co3041     N3059   2.062       .  S
Co3041     N3049   2.078       .  S
Co3041     N3081   2.080   1_655  S
Co3041     N3057   2.063   1_655  S
Co3041    Cl3085   2.440       .  S
N3042      C3080   1.344       .  A
N3042      N3049   1.320       .  A
N3042     Co3043   2.085       .  S
Co3043     N3046   2.096       .  S
Co3043     N3063   2.096   1_655  S
Co3043    Cl3085   2.459       .  S
C3044      N3082   1.354       .  A
C3044      C3104   1.482       .  S
N3045      N3052   1.317       .  A
N3045      N3075   1.323       .  A
N3045     Co3078   2.086       .  S
N3046      N3064   1.320       .  A
N3046      N3082   1.326       .  A
N3047      C3076   1.348       .  A
H3048      C3073   1.081       .  S
N3049      N3070   1.321       .  A
N3050      N3068   1.320       .  A
N3050      N3055   1.323       .  A
C3051      N3055   1.349       .  A
C3051      C3079   1.465       .  S
C3051      C3128   1.477       .  S
N3052      C3067   1.336       .  A
N3052     Co3074   2.068       .  S
C3053      H3087   1.080       .  S
C3053      C3056   1.455       .  S
C3056      N3077   1.350       .  A
C3056      C3233   1.473       .  S
N3057      N3063   1.319       .  A
N3058      C3084   1.337       .  A
N3058      N3060   1.319       .  A
N3059      C3073   1.333       .  A
N3060      N3088   1.325       .  A
H3061      C3084   1.082       .  S
H3062      C3079   1.082       .  S
N3064     Co3078   2.079       .  S
N3065      N3081   1.318       .  A
N3065     Co3074   2.081   1_455  S
C3066      N3070   1.346       .  A
C3066      C3080   1.459       .  S
C3066      C3197   1.468       .  S
C3067      H3071   1.082       .  S
C3067      C3086   1.460       .  S
N3068      C3079   1.343       .  A
C3072      N3088   1.352       .  A
C3072      C3084   1.460       .  S
C3072      C3116   1.471       .  S
Co3074    Cl3085   2.452       .  S
N3075      C3086   1.353       .  A
C3076      C3188   1.481       .  S
Co3078    Cl3085   2.440       .  S
C3086      C3089   1.472       .  S
C3089      C3090   1.405       .  A
C3089      C3094   1.412       .  A
C3090      H3099   1.084       .  S
C3091      C3092   1.412       .  A
C3091      S3095   1.804       .  S
C3092      C3093   1.403       .  A
C3093      H3100   1.084       .  S
C3094      S3096   1.804       .  S
S3095      H3098   1.406       .  S
S3096      H3097   1.406       .  S
C3101      C3102   1.400       .  A
C3101      C3106   1.411       .  A
C3102      C3103   1.399       .  A
C3102      H3111   1.083       .  S
C3103      C3104   1.419       .  A
C3103      S3107   1.810       .  S
C3104      C3105   1.405       .  A
C3105      C3106   1.402       .  A
C3105      H3112   1.084       .  S
C3106      S3108   1.803       .  S
S3107      H3110   1.406       .  S
S3108      H3109   1.406       .  S
C3113      C3114   1.405       .  A
C3113      C3118   1.413       .  A
C3114      C3115   1.401       .  A
C3114      H3123   1.084       .  S
C3115      S3119   1.803       .  S
C3116      C3117   1.403   1_565  A
C3117      H3124   1.084       .  S
C3125      C3126   1.403       .  A
C3125      C3130   1.416       .  A
C3126      C3127   1.399       .  A
C3126      H3135   1.084       .  S
C3127      C3128   1.416       .  A
C3127      S3131   1.804       .  S
C3128      C3129   1.402       .  A
C3129      C3130   1.403       .  A
C3129      H3136   1.084       .  S
C3130      S3132   1.804       .  S
S3131      H3134   1.404       .  S
S3132      H3133   1.406       .  S
C3137      C3138   1.410       .  A
C3138      C3139   1.400       .  A
C3138      H3147   1.084       .  S
C3139      S3143   1.805       .  S
C3140      C3141   1.405       .  A
C3141      C3142   1.407   1_565  A
C3141      H3148   1.084       .  S
C3142      S3144   1.799       .  S
C3149      C3150   1.407       .  A
C3149      C3154   1.412       .  A
C3150      C3151   1.392       .  A
C3150      H3159   1.081       .  S
C3151      C3152   1.408       .  A
C3151      S3155   1.808       .  S
C3152      C3153   1.406       .  A
C3153      C3154   1.406       .  A
C3153      H3160   1.084       .  S
C3154      S3156   1.799       .  S
S3155      H3158   1.403       .  S
S3156      H3157   1.407       .  S
C3161      C3162   1.404       .  A
C3161      C3166   1.413       .  A
C3163      C3164   1.416       .  A
C3163      S3167   1.803       .  S
C3165      C3166   1.396       .  A
C3165      H3172   1.084       .  S
C3166      S3168   1.804       .  S
S3167      H3170   1.404       .  S
S3168      H3169   1.406       .  S
C3173      C3174   1.403       .  A
C3173      C3178   1.411       .  A
C3174      C3175   1.403       .  A
C3174      H3183   1.084       .  S
C3175      C3176   1.413       .  A
C3175      S3179   1.803       .  S
C3176      C3177   1.402       .  A
C3177      C3178   1.397       .  A
C3177      H3184   1.084       .  S
C3178      S3180   1.805       .  S
S3179      H3182   1.404       .  S
S3180      H3181   1.406       .  S
C3185      C3186   1.397       .  A
C3185      C3190   1.412       .  A
C3186      C3187   1.396       .  A
C3186      H3195   1.083       .  S
C3187      C3188   1.415       .  A
C3187      S3191   1.801       .  S
C3188      C3189   1.405       .  A
C3189      C3190   1.401       .  A
C3189      H3196   1.083       .  S
C3190      S3192   1.807       .  S
S3191      H3194   1.407       .  S
S3192      H3193   1.401       .  S
C3197      C3198   1.401       .  A
C3197      C3202   1.409       .  A
C3198      C3199   1.401       .  A
C3198      H3207   1.084       .  S
C3199      C3200   1.416       .  A
C3199      S3203   1.805       .  S
C3200      C3201   1.403       .  A
C3201      C3202   1.396       .  A
C3201      H3208   1.084       .  S
C3202      S3204   1.803       .  S
S3203      H3206   1.406       .  S
S3204      H3205   1.406       .  S
C3209      C3210   1.407       .  A
C3209      C3214   1.420       .  A
C3210      C3211   1.414       .  A
C3210      H3219   1.083       .  S
C3211      C3212   1.419       .  A
C3211      S3215   1.803       .  S
C3212      C3213   1.398       .  A
C3213      C3214   1.399       .  A
C3213      H3220   1.084       .  S
C3214      S3216   1.801       .  S
S3215      H3218   1.405       .  S
S3216      H3217   1.407       .  S
C3221      C3222   1.405       .  A
C3221      C3226   1.410       .  A
C3222      C3223   1.408       .  A
C3222      H3231   1.084       .  S
C3223      C3224   1.415       .  A
C3223      S3227   1.802       .  S
C3224      C3225   1.403       .  A
C3225      C3226   1.395       .  A
C3225      H3232   1.084       .  S
C3226      S3228   1.805       .  S
S3227      H3230   1.405       .  S
S3228      H3229   1.407       .  S
C3233      C3234   1.399       .  A
C3233      C3238   1.411       .  A
C3234      C3235   1.400   1_565  A
C3234      H3243   1.084   1_565  S
C3235      C3236   1.419   1_545  A
C3236      C3237   1.406       .  A
C3237      C3238   1.402       .  A
C3237      H3244   1.083       .  S
C3238      S3240   1.804       .  S
S3239      H3242   1.407       .  S
S3240      H3241   1.405       .  S
C3245      C3246   1.404       .  A
C3245      C3250   1.416       .  A
C3246      C3247   1.390       .  A
C3246      H3255   1.080       .  S
C3247      C3248   1.409       .  A
C3247      S3251   1.806       .  S
C3248      C3249   1.403   1_565  A
C3249      C3250   1.405   1_545  A
S3251      H3254   1.405       .  S
S3252      H3253   1.407       .  S
C3257      C3258   1.409       .  A
C3257      C3262   1.417       .  A
C3258      C3259   1.400       .  A
C3258      H3267   1.084       .  S
C3259      C3260   1.409       .  A
C3259      S3263   1.805       .  S
C3260      C3261   1.405       .  A
C3261      C3262   1.408       .  A
C3261      H3268   1.084       .  S
S3263      H3266   1.406       .  S
S3264      H3265   1.406       .  S
C3269      C3270   1.409       .  A
C3269      C3274   1.413       .  A
C3270      C3271   1.412       .  A
C3270      H3279   1.083       .  S
C3271      C3272   1.416       .  A
C3271      S3275   1.801       .  S
C3272      C3273   1.405       .  A
C3273      C3274   1.400       .  A
C3273      H3280   1.083       .  S
C3274      S3276   1.806       .  S
S3275      H3278   1.405       .  S
S3276      H3277   1.403       .  S
C3281      C3282   1.406       .  A
C3282      C3283   1.402       .  A
C3282      H3291   1.082       .  S
C3283      S3287   1.806       .  S
C3284      C3285   1.403       .  A
C3285      C3286   1.404       .  A
C3285      H3292   1.083       .  S
C3286      S3288   1.806       .  S
C3293      C3294   1.404       .  A
C3293      C3298   1.411       .  A
C3294      C3295   1.400       .  A
C3294      H3303   1.084       .  S
C3295      C3296   1.410       .  A
C3295      S3299   1.805       .  S
C3296      C3297   1.406       .  A
C3297      C3298   1.396       .  A
C3297      H3304   1.084       .  S
C3298      S3300   1.805       .  S
S3299      H3302   1.405       .  S
S3300      H3301   1.405       .  S
C3305      C3306   1.401       .  A
C3305      C3310   1.415       .  A
C3306      H3315   1.084       .  S
C3307      C3308   1.415       .  A
C3307      S3311   1.802       .  S
C3309      C3310   1.402   1_545  A
C3309      H3316   1.084       .  S
C3310      S3312   1.804       .  S
S3311      H3314   1.404       .  S
S3312      H3313   1.405       .  S
C3317      C3318   1.404       .  A
C3317      C3322   1.410       .  A
C3318      C3319   1.400       .  A
C3318      H3327   1.084       .  S
C3319      C3320   1.414       .  A
C3319      S3323   1.804       .  S
C3320      C3321   1.405       .  A
C3321      C3322   1.401       .  A
C3321      H3328   1.084       .  S
C3322      S3324   1.803       .  S
S3323      H3326   1.406       .  S
S3324      H3325   1.406       .  S
C3329      C3330   1.404   1_565  A
C3329      C3334   1.417       .  A
C3330      H3339   1.084       .  S
C3331      C3332   1.414       .  A
C3331      S3335   1.805       .  S
C3332      C3333   1.402       .  A
C3333      H3340   1.084       .  S
C3334      S3336   1.803       .  S
S3335      H3338   1.404       .  S
S3336      H3337   1.407       .  S
C3341      C3342   1.401       .  A
C3341      C3346   1.412       .  A
C3342      C3343   1.398       .  A
C3342      H3351   1.084       .  S
C3343      C3344   1.415       .  A
C3343      S3347   1.803       .  S
C3344      C3345   1.401       .  A
C3345      C3346   1.399       .  A
C3345      H3352   1.084       .  S
C3346      S3348   1.804       .  S
S3347      H3350   1.404       .  S
S3348      H3349   1.403       .  S
C3353      C3354   1.406       .  A
C3353      C3358   1.413       .  A
C3354      H3363   1.084       .  S
C3355      C3356   1.409       .  A
C3355      S3359   1.803       .  S
C3356      C3357   1.405   1_565  A
C3357      H3364   1.084       .  S
C3358      S3360   1.806       .  S
S3359      H3362   1.406       .  S
S3360      H3361   1.406       .  S
C3365      C3366   1.405       .  A
C3365      C3370   1.412       .  A
C3366      C3367   1.396       .  A
C3366      H3375   1.084       .  S
C3367      C3368   1.412       .  A
C3367      S3371   1.806       .  S
C3368      C3369   1.405       .  A
C3369      C3370   1.402       .  A
C3369      H3376   1.084       .  S
C3370      S3372   1.804       .  S
S3371      H3374   1.406       .  S
S3372      H3373   1.405       .  S
C3377      C3378   1.396       .  A
C3377      C3382   1.410       .  A
C3378      C3379   1.398       .  A
C3378      H3387   1.083       .  S
C3379      C3380   1.426       .  A
C3379      S3383   1.811       .  S
C3380      C3381   1.409       .  A
C3381      C3382   1.404       .  A
C3381      H3388   1.082       .  S
C3382      S3384   1.802       .  S
S3383      H3386   1.406       .  S
S3384      H3385   1.405       .  S
C3389      C3390   1.404       .  A
C3389      C3394   1.412       .  A
C3390      C3391   1.406       .  A
C3390      H3399   1.084       .  S
C3391      C3392   1.417       .  A
C3391      S3395   1.798       .  S
C3392      C3393   1.408       .  A
C3393      C3394   1.395       .  A
C3393      H3400   1.083       .  S
C3394      S3396   1.806       .  S
S3395      H3398   1.408       .  S
S3396      H3397   1.407       .  S
C3401      C3402   1.402       .  A
C3401      C3406   1.414       .  A
C3402      C3403   1.402       .  A
C3402      H3411   1.084       .  S
C3403      C3404   1.413       .  A
C3403      S3407   1.804       .  S
C3404      C3405   1.400       .  A
C3405      C3406   1.397       .  A
C3405      H3412   1.084       .  S
C3406      S3408   1.805       .  S
S3407      H3410   1.405       .  S
S3408      H3409   1.407       .  S
C3413      C3414   1.400       .  A
C3413      C3418   1.413       .  A
C3414      C3415   1.394       .  A
C3414      H3423   1.084       .  S
C3415      C3416   1.412       .  A
C3415      S3419   1.804       .  S
C3416      C3417   1.401       .  A
C3417      C3418   1.400       .  A
C3417      H3424   1.084       .  S
C3418      S3420   1.804       .  S
S3419      H3422   1.406       .  S
S3420      H3421   1.406       .  S
C3425      C3426   1.401       .  A
C3425      C3430   1.413       .  A
C3426      C3427   1.394       .  A
C3426      H3435   1.084       .  S
C3427      C3428   1.411       .  A
C3427      S3431   1.806       .  S
C3428      C3429   1.399       .  A
C3429      C3430   1.398       .  A
C3429      H3436   1.084       .  S
S3431      H3434   1.407       .  S
S3432      H3433   1.405       .  S
C3437      C3438   1.404       .  A
C3437      C3442   1.410       .  A
C3438      C3439   1.400       .  A
C3438      H3447   1.084       .  S
C3439      C3440   1.410       .  A
C3439      S3443   1.803       .  S
C3440      C3441   1.404       .  A
C3441      C3442   1.392       .  A
C3441      H3448   1.085       .  S
C3442      S3444   1.806       .  S
S3443      H3446   1.405       .  S
S3444      H3445   1.405       .  S
C3449      C3450   1.406       .  A
C3449      C3454   1.416       .  A
C3450      C3451   1.409       .  A
C3450      H3459   1.084       .  S
C3451      C3452   1.418       .  A
C3451      S3455   1.803   1_565  S
C3452      C3453   1.401       .  A
C3453      C3454   1.389       .  A
C3453      H3460   1.085       .  S
C3454      S3456   1.805       .  S
S3455      H3458   1.405       .  S
S3456      H3457   1.407       .  S
C3461      C3462   1.402       .  A
C3461      C3466   1.410       .  A
C3462      C3463   1.405       .  A
C3462      H3471   1.084   1_565  S
C3463      C3464   1.421       .  A
C3463      S3467   1.799       .  S
C3464      C3465   1.409       .  A
C3465      C3466   1.396       .  A
C3465      H3472   1.080       .  S
C3466      S3468   1.806       .  S
S3467      H3470   1.408       .  S
S3468      H3469   1.406       .  S
