geometry optimzed in LAMMPS
_audit_creation_date              2020-12-01 
_audit_creation_method            'lammps2cif' 
_symmetry_space_group_name_H-M    'P1' 
_symmetry_Int_Tables_number       1 
_symmetry_cell_setting            triclinic 
loop_ 
_symmetry_equiv_pos_as_xyz 
  x,y,z 
_cell_length_a                    55.12148674 
_cell_length_b                    55.60219947329695 
_cell_length_c                    55.65314785312893 
_cell_angle_alpha                 90.04136935020014 
_cell_angle_beta                  89.96674698654168 
_cell_angle_gamma                 90.13948746048838 
loop_ 
_atom_site_label 
_atom_site_type_symbol 
_atom_site_fract_x 
_atom_site_fract_y 
_atom_site_fract_z 
_atom_site_charge 
O1          O  0.47492312  0.69674332  0.97626697    -0.72600
O2          O  0.52646941  0.64590943  0.97722802    -0.73600
O3          O  0.47483731  0.64545131  0.97633930    -0.52600
O4          O  0.52674861  0.69676496  0.97758840    -0.70700
O5          O  0.52565483  0.69671438  0.01745107    -0.70200
O6          O  0.47384622  0.64542391  0.01619781    -0.61500
O7          O  0.52560876  0.64554092  0.01710597    -0.74000
O8          O  0.47383289  0.69661472  0.01613385    -0.72800
Cu9        Cu  0.50073937  0.67125324  0.97548192     1.04600
Cu10       Cu  0.49969025  0.67110501  0.01812254     1.04300
C11         C  0.46609730  0.70456497  0.99600232     0.93500
C12         C  0.53427110  0.63781164  0.99722793     0.92700
C13         C  0.46625459  0.63726739  0.99607881     0.84800
C14         C  0.53462100  0.70454792  0.99776838     0.91100
C15         C  0.83199280  0.65063928  0.00200055     0.86800
C16         C  0.85316905  0.64916140  0.98412979    -0.53500
C17         C  0.86720546  0.66949226  0.98287695     0.09700
C18         C  0.85876915  0.68959029  0.00005808     0.20700
C19         C  0.84408089  0.65729725  0.02605124    -0.54200
C20         C  0.85835791  0.67750017  0.02500886     0.09800
C21         C  0.81807748  0.67322068  0.99461799    -0.53700
C22         C  0.83185842  0.69363755  0.99375090     0.10400
H23         H  0.85642785  0.63334981  0.97315938     0.14900
H24         H  0.87000263  0.70617552  0.99923837     0.00600
H25         H  0.84277423  0.64634363  0.04209065     0.15200
H26         H  0.79873832  0.67312323  0.99084484     0.15000
C27         C  0.67083629  0.80964613  0.00405656     0.86800
C28         C  0.67618303  0.82424258  0.02694767    -0.53500
C29         C  0.69626874  0.83876195  0.02526095     0.09700
C30         C  0.70949596  0.83689538  0.00089184     0.20700
C31         C  0.66959223  0.82850217  0.98411488    -0.54200
C32         C  0.68970444  0.84282840  0.98224702     0.09800
C33         C  0.69412170  0.79572623  0.99898603    -0.53700
C34         C  0.71439167  0.80977403  0.99746045     0.10400
H35         H  0.66449412  0.82412007  0.04261539     0.14900
H36         H  0.72597422  0.84833339  0.99953537     0.00600
H37         H  0.65399048  0.83004637  0.97235182     0.15200
H38         H  0.69453464  0.77631970  0.99669577     0.15000
O39         O  0.71585233  0.50906347  0.97741678    -0.72600
O40         O  0.66220611  0.45895693  0.97401889    -0.73600
O41         O  0.66430095  0.51026458  0.97459047    -0.62200
O42         O  0.71365865  0.45717691  0.97626872    -0.70700
O43         O  0.71184303  0.45666057  0.01611465    -0.70200
O44         O  0.66239264  0.50944632  0.01442873    -0.61500
O45         O  0.66088328  0.45832518  0.01386304    -0.74000
O46         O  0.71396760  0.50827891  0.01721157    -0.72800
Cu47       Cu  0.68915867  0.48391313  0.97416317     1.04600
Cu48       Cu  0.68726379  0.48321362  0.01675848     1.04300
C49         C  0.72302222  0.51689083  0.99787975     0.93500
C50         C  0.65332573  0.45060465  0.99357760     0.92700
C51         C  0.65542484  0.51805286  0.99430509     0.84800
C52         C  0.71993196  0.44806201  0.99638618     0.91100
C53         C  0.66547384  0.14987731  0.99704861     0.86800
C54         C  0.67225267  0.13675553  0.97365764    -0.53500
C55         C  0.69296903  0.12326042  0.97529118     0.09700
C56         C  0.70527713  0.12452081  0.00017519     0.20700
C57         C  0.66442246  0.12996381  0.01599720    -0.54200
C58         C  0.68514060  0.11657094  0.01775185     0.09800
C59         C  0.68791921  0.16465675  0.00348507    -0.53700
C60         C  0.70876693  0.15164970  0.00510593     0.10400
H61         H  0.66114325  0.13697689  0.95761765     0.14900
H62         H  0.72221536  0.11384380  0.00153317     0.00600
H63         H  0.64850926  0.12683453  0.02708202     0.15200
H64         H  0.68736306  0.18397198  0.00644546     0.15000
C65         C  0.82546733  0.31353028  0.00013797     0.86800
C66         C  0.84445543  0.31539192  0.02018910    -0.53500
C67         C  0.85854086  0.29529085  0.02274149     0.09700
C68         C  0.85245569  0.27519203  0.00453707     0.20700
C69         C  0.84011681  0.30734642  0.97751191    -0.54200
C70         C  0.85438079  0.28740590  0.97977059     0.09800
C71         C  0.81113171  0.29072782  0.00597159    -0.53700
C72         C  0.82505664  0.27062146  0.00812085     0.10400
H73         H  0.84633221  0.33120094  0.03150468     0.14900
H74         H  0.86367466  0.25874828  0.00641166     0.00600
H75         H  0.84009804  0.31828022  0.96140790     0.15200
H76         H  0.79151010  0.29044554  0.00788822     0.15000
O77         O  0.47614415  0.32036995  0.97508196    -0.72600
O78         O  0.52461151  0.26639944  0.97495285    -0.73600
O79         O  0.47268336  0.26940244  0.97575271    -0.62200
O80         O  0.52761618  0.31775600  0.97464415    -0.70700
O81         O  0.52808475  0.31807940  0.01452270    -0.70200
O82         O  0.47402364  0.26970078  0.01560883    -0.61500
O83         O  0.52571590  0.26727063  0.01481467    -0.74000
O84         O  0.47678350  0.32069427  0.01497017    -0.72800
Cu85       Cu  0.50026717  0.29338999  0.97368831     1.04600
Cu86       Cu  0.50114476  0.29386943  0.01634012     1.04300
C87         C  0.46898231  0.32913282  0.99506883     0.93500
C88         C  0.53311817  0.25863421  0.99484243     0.92700
C89         C  0.46448467  0.26227237  0.99604237     0.84800
C90         C  0.53627149  0.32571002  0.99445465     0.91100
C91         C  0.17022396  0.31274040  0.00367817     0.86800
C92         C  0.15004492  0.31427636  0.98474723    -0.53500
C93         C  0.13535954  0.29435208  0.98362825     0.09700
C94         C  0.14235443  0.27459789  0.00176261     0.20700
C95         C  0.15670785  0.30731658  0.02725038    -0.54200
C96         C  0.14188957  0.28756088  0.02626413     0.09800
C97         C  0.18377622  0.28955869  0.99763222    -0.53700
C98         C  0.16938348  0.26956854  0.99670840     0.10400
H99         H  0.14781548  0.32983194  0.97320575     0.14900
H100        H  0.13069978  0.25831307  0.00095865     0.00600
H101        H  0.15753213  0.31888139  0.04288570     0.15200
H102        H  0.20320517  0.28899420  0.99437130     0.15000
C103        C  0.32869813  0.15690537  0.00219119     0.86800
C104        C  0.32370078  0.14425825  0.02627665    -0.53500
C105        C  0.30453964  0.12851178  0.02565748     0.09700
C106        C  0.29175661  0.12737146  0.00103242     0.20700
C107        C  0.33152257  0.13626802  0.98412057    -0.54200
C108        C  0.31220924  0.12073522  0.98326176     0.09800
C109        C  0.30478390  0.16889970  0.99549866    -0.53700
C110        C  0.28541578  0.15367002  0.99501504     0.10400
H111        H  0.33505523  0.14637064  0.04200054     0.14900
H112        H  0.27584727  0.11514283  0.00051811     0.00600
H113        H  0.34742473  0.13459253  0.97277461     0.15200
H114        H  0.30323248  0.18801924  0.99177071     0.15000
C115        C  0.17345200  0.64852510  0.99900705     0.86800
C116        C  0.15272853  0.64627657  0.01715079    -0.53500
C117        C  0.13785964  0.66588209  0.01827999     0.09700
C118        C  0.14528515  0.68627719  0.00089753     0.20700
C119        C  0.16084686  0.65439079  0.97509616    -0.54200
C120        C  0.14593911  0.67400332  0.97599252     0.09800
C121        C  0.18664880  0.67172077  0.00600434    -0.53700
C122        C  0.17208762  0.69156712  0.00704936     0.10400
H123        H  0.15036680  0.63044990  0.02831408     0.14900
H124        H  0.13342839  0.70235591  0.00174692     0.00600
H125        H  0.16251334  0.64346889  0.95910620     0.15200
H126        H  0.20596410  0.67234684  0.00983530     0.15000
C127        C  0.32914544  0.80799117  0.99585642     0.86800
C128        C  0.32294389  0.82056385  0.97211647    -0.53500
C129        C  0.30322095  0.83546858  0.97331023     0.09700
C130        C  0.29119876  0.83607741  0.99840915     0.20700
C131        C  0.33176970  0.82853380  0.01394467    -0.54200
C132        C  0.31203333  0.84334829  0.01561536     0.09800
C133        C  0.30586966  0.79499969  0.00324288    -0.53700
C134        C  0.28591390  0.80946234  0.00452291     0.10400
H135        H  0.33389998  0.81890696  0.95607838     0.14900
H136        H  0.27494741  0.84773261  0.99953890     0.00600
H137        H  0.34806316  0.83066484  0.02460508     0.15200
H138        H  0.30524086  0.77584802  0.00706564     0.15000
O139        O  0.28732686  0.45362703  0.97963686    -0.72600
O140        O  0.33714628  0.50718482  0.97691803    -0.73600
O141        O  0.33872732  0.45615441  0.97687703    -0.62200
O142        O  0.28553188  0.50496572  0.97911492    -0.70700
O143        O  0.28721073  0.50564915  0.01896650    -0.70200
O144        O  0.34039972  0.45615171  0.01673661    -0.61500
O145        O  0.33844762  0.50711504  0.01676920    -0.74000
O146        O  0.28854240  0.45408062  0.01947677    -0.72800
Cu147      Cu  0.31203882  0.48044807  0.97676060     1.04600
Cu148      Cu  0.31365882  0.48070870  0.01938340     1.04300
C149        C  0.28021506  0.44531253  0.99989968     0.93500
C150        C  0.34570781  0.51548054  0.99662867     0.92700
C151        C  0.34817770  0.44868660  0.99640743     0.84800
C152        C  0.27834699  0.51341285  0.99923335     0.91100
O153        O  0.52525148  0.95909721  0.71178019    -0.72600
O154        O  0.47070484  0.95868587  0.66329315    -0.73600
O155        O  0.52217863  0.95932828  0.66041966    -0.62200
O156        O  0.47321327  0.95834606  0.71456169    -0.70700
O157        O  0.47268330  0.99824849  0.71434244    -0.70200
O158        O  0.52179688  0.99922651  0.66076655    -0.61500
O159        O  0.47027935  0.99859819  0.66357035    -0.74000
O160        O  0.52443197  0.99897834  0.71228402    -0.72800
Cu161      Cu  0.49788501  0.95745191  0.68755711     1.04600
Cu162      Cu  0.49734391  0.00011775  0.68779419     1.04300
C163        C  0.53339433  0.97914978  0.71973216     0.93500
C164        C  0.46200932  0.97859878  0.65573549     0.92700
C165        C  0.52945854  0.97943596  0.65188035     0.84800
C166        C  0.46487954  0.97823827  0.72260703     0.91100
C167        C  0.82862964  0.98660246  0.66874054     0.86800
C168        C  0.84172620  0.01035910  0.67508216    -0.53500
C169        C  0.85647814  0.00890005  0.69496611     0.09700
C170        C  0.85615362  0.98382946  0.70700416     0.20700
C171        C  0.84906053  0.96815362  0.66676433    -0.54200
C172        C  0.86373418  0.96643707  0.68652103     0.09800
C173        C  0.81490288  0.97970676  0.69157324    -0.53700
C174        C  0.82891562  0.97842910  0.71172747     0.10400
H175        H  0.84050582  0.02643262  0.66414991     0.14900
H176        H  0.86760455  0.98260650  0.72334329     0.00600
H177        H  0.85134909  0.95735851  0.65071729     0.15200
H178        H  0.79545426  0.97646660  0.69182054     0.15000
C179        C  0.66632112  0.98421535  0.82901272     0.86800
C180        C  0.66480718  0.96582621  0.84935639    -0.53500
C181        C  0.68532483  0.96412873  0.86312842     0.09700
C182        C  0.70573639  0.98145528  0.85509970     0.20700
C183        C  0.67320528  0.00792376  0.84158458    -0.54200
C184        C  0.69368822  0.00649852  0.85550918     0.09800
C185        C  0.68895843  0.97711542  0.81479795    -0.53700
C186        C  0.70966662  0.97577298  0.82817713     0.10400
H187        H  0.64875743  0.95486070  0.85219938     0.14900
H188        H  0.72252437  0.98030988  0.86602895     0.00600
H189        H  0.66227904  0.02406364  0.84059586     0.15200
H190        H  0.68865950  0.97375816  0.79556524     0.15000
O191        O  0.71263250  0.95653175  0.47466087    -0.72600
O192        O  0.66098919  0.95791920  0.52589756    -0.73600
O193        O  0.66078265  0.95791555  0.47485249    -0.62200
O194        O  0.71287196  0.95675567  0.52641052    -0.70700
O195        O  0.71424262  0.99659349  0.52523923    -0.70200
O196        O  0.66133529  0.99781813  0.47533752    -0.61500
O197        O  0.66223593  0.99780481  0.52633043    -0.74000
O198        O  0.71279018  0.99641441  0.47358699    -0.72800
Cu199      Cu  0.68685537  0.95588053  0.50046287     1.04600
Cu200      Cu  0.68778226  0.99851953  0.50016022     1.04300
C201        C  0.72042807  0.97622463  0.46561527     0.93500
C202        C  0.65323793  0.97800552  0.53396979     0.92700
C203        C  0.65267123  0.97807875  0.46727537     0.84800
C204        C  0.72165818  0.97668562  0.53404506     0.91100
C205        C  0.17195708  0.97621802  0.67036270     0.86800
C206        C  0.15853642  0.95270872  0.67620485    -0.53500
C207        C  0.14398963  0.95386584  0.69609963     0.09700
C208        C  0.14461245  0.97866363  0.70873099     0.20700
C209        C  0.15187023  0.99507062  0.66873117    -0.54200
C210        C  0.13744086  0.99654922  0.68869406     0.09800
C211        C  0.18586716  0.98255300  0.69322097    -0.53700
C212        C  0.17183894  0.98374222  0.71339520     0.10400
H213        H  0.15924226  0.93695938  0.66479374     0.14900
H214        H  0.13308246  0.97976234  0.72505312     0.00600
H215        H  0.14941615  0.00634263  0.65300077     0.15200
H216        H  0.20533179  0.98569338  0.69343168     0.15000
C217        C  0.33090875  0.97726225  0.83019940     0.86800
C218        C  0.33374376  0.99520737  0.85078580    -0.53500
C219        C  0.31372439  0.99755031  0.86519998     0.09700
C220        C  0.29245212  0.98094030  0.85752892     0.20700
C221        C  0.32354984  0.95365352  0.84246554    -0.54200
C222        C  0.30354073  0.95538106  0.85694788     0.09800
C223        C  0.30823157  0.98544404  0.81680900    -0.53700
C224        C  0.28799940  0.98729587  0.83085757     0.10400
H225        H  0.35028647  0.00551303  0.85314641     0.14900
H226        H  0.27599364  0.98248966  0.86888754     0.00600
H227        H  0.33391004  0.93725973  0.84070787     0.15200
H228        H  0.30813141  0.98908660  0.79763034     0.15000
O229        O  0.28288664  0.00129620  0.47439653    -0.72600
O230        O  0.33455302  0.00150358  0.52554288    -0.73600
O231        O  0.33428522  0.00225574  0.47415690    -0.62200
O232        O  0.28338269  0.00030501  0.52599582    -0.70700
O233        O  0.28360007  0.96040072  0.52506098    -0.70200
O234        O  0.33507688  0.96234721  0.47372822    -0.61500
O235        O  0.33518708  0.96159950  0.52496252    -0.74000
O236        O  0.28379661  0.96141923  0.47319598    -0.72800
Cu237      Cu  0.30868422  0.00270607  0.50004880     1.04600
Cu238      Cu  0.30936760  0.96003612  0.49923580     1.04300
C239        C  0.27579652  0.98143404  0.46515727     0.93500
C240        C  0.34289858  0.98159931  0.53342377     0.92700
C241        C  0.34260689  0.98254748  0.46569734     0.84800
C242        C  0.27591412  0.98010146  0.53410666     0.91100
C243        C  0.33167368  0.98530809  0.17052058     0.86800
C244        C  0.33417334  0.96637951  0.15074504    -0.53500
C245        C  0.31458739  0.96457340  0.13568781     0.09700
C246        C  0.29409083  0.98243398  0.14201427     0.20700
C247        C  0.32612439  0.00874589  0.15705124    -0.54200
C248        C  0.30655155  0.00731869  0.14200653     0.09800
C249        C  0.30804522  0.97884281  0.18344365    -0.53700
C250        C  0.28834224  0.97745867  0.16867003     0.10400
H251        H  0.35023345  0.95527281  0.14922010     0.14900
H252        H  0.27794363  0.98129611  0.13019400     0.00600
H253        H  0.33719894  0.02477546  0.15849628     0.15200
H254        H  0.30692916  0.97585506  0.20270557     0.15000
C255        C  0.17502244  0.98168388  0.32641298     0.86800
C256        C  0.16047711  0.00479132  0.32181632    -0.53500
C257        C  0.14420202  0.00310983  0.30331937     0.09700
C258        C  0.14422445  0.97832255  0.29076207     0.20700
C259        C  0.15565030  0.96220963  0.32981142    -0.54200
C260        C  0.13945862  0.96014052  0.31128442     0.09800
C261        C  0.18688480  0.97577786  0.30228468    -0.53700
C262        C  0.17097557  0.97421898  0.28356431     0.10400
H263        H  0.16198305  0.02077885  0.33279905     0.14900
H264        H  0.13136282  0.97696984  0.27549033     0.00600
H265        H  0.15520617  0.95082871  0.34562481     0.15200
H266        H  0.20633252  0.97350147  0.30008012     0.15000
C267        C  0.66820672  0.97779311  0.17304193     0.86800
C268        C  0.66715215  0.99725658  0.15359953    -0.53500
C269        C  0.68771694  0.99905828  0.13992171     0.09700
C270        C  0.70766977  0.98102166  0.14701171     0.20700
C271        C  0.67446757  0.95466594  0.15920499    -0.54200
C272        C  0.69494907  0.95638219  0.14531545     0.09800
C273        C  0.69099739  0.98367446  0.18754497    -0.53700
C274        C  0.71171596  0.98520242  0.17414590     0.10400
H275        H  0.65134738  0.00855137  0.15089895     0.14900
H276        H  0.72444161  0.98239910  0.13603212     0.00600
H277        H  0.66306044  0.93876861  0.15924349     0.15200
H278        H  0.69078947  0.98612703  0.20691578     0.15000
C279        C  0.82904586  0.97294787  0.33231763     0.86800
C280        C  0.84222977  0.94910950  0.32744422    -0.53500
C281        C  0.85736876  0.94955571  0.30789839     0.09700
C282        C  0.85743433  0.97393383  0.29452364     0.20700
C283        C  0.84946369  0.99162041  0.33382570    -0.54200
C284        C  0.86448947  0.99223822  0.31419447     0.09800
C285        C  0.81589022  0.97867651  0.30892897    -0.53700
C286        C  0.83044483  0.97929978  0.28910884     0.10400
H287        H  0.84095409  0.93362819  0.33913983     0.14900
H288        H  0.86934252  0.97443356  0.27844234     0.00600
H289        H  0.85174763  0.00330548  0.34929562     0.15200
H290        H  0.79652670  0.98222729  0.30816585     0.15000
O291        O  0.52323364  0.95952042  0.33865576    -0.72600
O292        O  0.47233621  0.96057193  0.28692765    -0.73600
O293        O  0.52418654  0.95923122  0.28719798    -0.62200
O294        O  0.47185127  0.96072370  0.33776132    -0.70700
O295        O  0.47220267  0.00064308  0.33736502    -0.70200
O296        O  0.52553147  0.99911221  0.28787198    -0.61500
O297        O  0.47384389  0.00046471  0.28627041    -0.74000
O298        O  0.52375408  0.99943283  0.33911989    -0.72800
Cu299      Cu  0.49791699  0.95862377  0.31259673     1.04600
Cu300      Cu  0.49891937  0.00130417  0.31261049     1.04300
C301        C  0.53116310  0.97930823  0.34737522     0.93500
C302        C  0.46485156  0.98067083  0.27867027     0.92700
C303        C  0.53319977  0.97903971  0.27964257     0.84800
C304        C  0.46367946  0.98081799  0.34539024     0.91100
O305        O  0.97693707  0.45246416  0.71350772    -0.72600
O306        O  0.97951092  0.50496067  0.66386734    -0.73600
O307        O  0.97758869  0.45381421  0.66234597    -0.62200
O308        O  0.97872490  0.50398537  0.71484192    -0.70700
O309        O  0.01892810  0.50214203  0.71535624    -0.70200
O310        O  0.01784518  0.45307769  0.66210504    -0.61500
O311        O  0.01977198  0.50402322  0.66425900    -0.74000
O312        O  0.01716665  0.45088526  0.71309413    -0.72800
Cu313      Cu  0.97676868  0.47883443  0.68865054     1.04600
Cu314      Cu  0.01980872  0.47747206  0.68877343     1.04300
C315        C  0.99677087  0.44321383  0.72091881     0.93500
C316        C  0.99995780  0.51277585  0.65628815     0.92700
C317        C  0.99752153  0.44571089  0.65384611     0.84800
C318        C  0.99910978  0.51115510  0.72317675     0.91100
C319        C  0.00155461  0.80646256  0.66717379     0.86800
C320        C  0.98284256  0.82667414  0.66508049    -0.53500
C321        C  0.98148624  0.84162759  0.68464137     0.09700
C322        C  0.99937690  0.83445877  0.70495521     0.20700
C323        C  0.02551840  0.81951633  0.67290514    -0.54200
C324        C  0.02445322  0.83434095  0.69257369     0.09800
C325        C  0.99495111  0.79328280  0.69037863    -0.53700
C326        C  0.99405645  0.80760446  0.71025279     0.10400
H327        H  0.97177064  0.82882522  0.64913321     0.14900
H328        H  0.99851697  0.84605662  0.72114571     0.00600
H329        H  0.04168210  0.81798349  0.66198128     0.15200
H330        H  0.99204225  0.77396008  0.69115734     0.15000
C331        C  0.00634616  0.64710247  0.82715373     0.86800
C332        C  0.03093550  0.65316216  0.83893017    -0.53500
C333        C  0.03051788  0.67334136  0.85315522     0.09700
C334        C  0.00561133  0.68599232  0.85370079     0.20700
C335        C  0.98853032  0.64592690  0.84829301    -0.54200
C336        C  0.98793927  0.66619706  0.86226668     0.09800
C337        C  0.99934444  0.66987921  0.81344364    -0.53700
C338        C  0.99909795  0.69027976  0.82707819     0.10400
H339        H  0.04682734  0.64184411  0.83747401     0.14900
H340        H  0.00518416  0.70257683  0.86479602     0.00600
H341        H  0.97723126  0.63027936  0.85172066     0.15200
H342        H  0.99517462  0.66989921  0.79436310     0.15000
O343        O  0.02140183  0.63924435  0.52638170    -0.72600
O344        O  0.01934476  0.68893900  0.47486433    -0.73600
O345        O  0.02089414  0.69028773  0.52581842    -0.62200
O346        O  0.01918588  0.63810645  0.47563208    -0.70700
O347        O  0.97891340  0.63862469  0.47652362    -0.70200
O348        O  0.98065837  0.68966570  0.52749376    -0.61500
O349        O  0.97908402  0.68969852  0.47625399    -0.74000
O350        O  0.98112375  0.63880244  0.52749848    -0.72800
Cu351      Cu  0.02159347  0.66418552  0.50059457     1.04600
Cu352      Cu  0.97850908  0.66421047  0.50196580     1.04300
C353        C  0.00159366  0.63116277  0.53508673     0.93500
C354        C  0.99913067  0.69714928  0.46738551     0.92700
C355        C  0.00099196  0.69788996  0.53485497     0.84800
C356        C  0.99872933  0.63016730  0.46822263     0.91100
C357        C  0.99603832  0.64710330  0.17306149     0.86800
C358        C  0.97206950  0.65488593  0.16122999    -0.53500
C359        C  0.97424393  0.67458942  0.14658055     0.09700
C360        C  0.00015504  0.68510419  0.14571061     0.20700
C361        C  0.01366923  0.64392398  0.15201259    -0.54200
C362        C  0.01602253  0.66375280  0.13761994     0.09800
C363        C  0.00509640  0.66947402  0.18627038    -0.53700
C364        C  0.00724199  0.68939103  0.17216861     0.10400
H365        H  0.95521758  0.64499990  0.16299226     0.14900
H366        H  0.00185434  0.70139380  0.13433675     0.00600
H367        H  0.02366088  0.62737928  0.14914293     0.15200
H368        H  0.00912732  0.66962080  0.20538284     0.15000
C369        C  0.99921362  0.80269741  0.33429797     0.86800
C370        C  0.01847587  0.82248998  0.33596262    -0.53500
C371        C  0.02044780  0.83647427  0.31582270     0.09700
C372        C  0.00236880  0.82926408  0.29577796     0.20700
C373        C  0.97571198  0.81603022  0.32808074    -0.54200
C374        C  0.97727546  0.83016184  0.30807488     0.09800
C375        C  0.00574794  0.78853401  0.31169667    -0.53700
C376        C  0.00720791  0.80225155  0.29145753     0.10400
H377        H  0.02973131  0.82475187  0.35177357     0.14900
H378        H  0.00361181  0.84033158  0.27925046     0.00600
H379        H  0.95968928  0.81558595  0.33931775     0.15200
H380        H  0.00857600  0.76919774  0.31163837     0.15000
O381        O  0.01482622  0.45485486  0.28649211    -0.72600
O382        O  0.01325664  0.50425894  0.33901865    -0.73600
O383        O  0.01448383  0.45363420  0.33783752    -0.62200
O384        O  0.01340413  0.50625363  0.28823302    -0.70700
O385        O  0.97316790  0.50483667  0.28760420    -0.70200
O386        O  0.97421901  0.45288979  0.33808628    -0.61500
O387        O  0.97296705  0.50382761  0.33869230    -0.74000
O388        O  0.97458616  0.45337449  0.28693934    -0.72800
Cu389      Cu  0.01538748  0.47976376  0.31281868     1.04600
Cu390      Cu  0.97232040  0.47867576  0.31274042     1.04300
C391        C  0.99491101  0.44602749  0.27868130     0.93500
C392        C  0.99298714  0.51172284  0.34718954     0.92700
C393        C  0.99452054  0.44536546  0.34616820     0.84800
C394        C  0.99312980  0.51408913  0.28036514     0.91100
C395        C  0.99941094  0.15324098  0.66872263     0.86800
C396        C  0.01753133  0.13245500  0.66749811    -0.53500
C397        C  0.01903053  0.11912007  0.68810934     0.09700
C398        C  0.00190768  0.12791419  0.70826460     0.20700
C399        C  0.97533177  0.14122183  0.67599407    -0.54200
C400        C  0.97656070  0.12767435  0.69649520     0.09800
C401        C  0.00710573  0.16783687  0.69073949    -0.53700
C402        C  0.00824119  0.15483506  0.71153600     0.10400
H403        H  0.02836358  0.12884826  0.65161387     0.14900
H404        H  0.00298162  0.11725801  0.72508865     0.00600
H405        H  0.95907633  0.14201437  0.66511671     0.15200
H406        H  0.01073696  0.18703705  0.69000933     0.15000
C407        C  0.99266228  0.31202686  0.83003906     0.86800
C408        C  0.96884906  0.30548594  0.84284433    -0.53500
C409        C  0.97046753  0.28569943  0.85740682     0.09700
C410        C  0.99574157  0.27372927  0.85711730     0.20700
C411        C  0.01127352  0.31419988  0.85032356    -0.54200
C412        C  0.01306907  0.29424274  0.86463101     0.09800
C413        C  0.99992364  0.28939008  0.81638385    -0.53700
C414        C  0.00153145  0.26927033  0.83025849     0.10400
H415        H  0.95267878  0.31649485  0.84198476     0.14900
H416        H  0.99701456  0.25738543  0.86847361     0.00600
H417        H  0.02217057  0.33027442  0.85287485     0.15200
H418        H  0.00351373  0.28931142  0.79717964     0.15000
C419        C  0.00227541  0.14965650  0.33431463     0.86800
C420        C  0.98433876  0.12855887  0.33590977    -0.53500
C421        C  0.98342246  0.11451529  0.31566913     0.09700
C422        C  0.00084367  0.12293005  0.29567554     0.20700
C423        C  0.02669436  0.13775509  0.32797365    -0.54200
C424        C  0.02586315  0.12347014  0.30793146     0.09800
C425        C  0.99488310  0.16328821  0.31164539    -0.53700
C426        C  0.99438764  0.14950760  0.29137512     0.10400
H427        H  0.97322672  0.12530477  0.35168280     0.14900
H428        H  0.00022541  0.11178846  0.27913511     0.00600
H429        H  0.04275561  0.13910459  0.33911126     0.15200
H430        H  0.99097448  0.18243431  0.31154509     0.15000
C431        C  0.00154534  0.30993184  0.17578791     0.86800
C432        C  0.02495682  0.30477671  0.16185297    -0.53500
C433        C  0.02391407  0.28480674  0.14749518     0.09700
C434        C  0.99932558  0.27141868  0.14876722     0.20700
C435        C  0.98182639  0.31086025  0.15654902    -0.54200
C436        C  0.98019954  0.29074026  0.14253281     0.09800
C437        C  0.99631100  0.28681758  0.18978363    -0.53700
C438        C  0.99526299  0.26656732  0.17583447     0.10400
H439        H  0.04065572  0.31650019  0.16232914     0.14900
H440        H  0.99824719  0.25500221  0.13744766     0.00600
H441        H  0.97001720  0.32630540  0.15445799     0.15200
H442        H  0.99348066  0.28652127  0.20910318     0.15000
O443        O  0.97739365  0.26583703  0.47488933    -0.72600
O444        O  0.97824141  0.31699682  0.52620281    -0.73600
O445        O  0.97643618  0.31683961  0.47507905    -0.62200
O446        O  0.97903417  0.26567709  0.52620926    -0.70700
O447        O  0.01926881  0.26675825  0.52541245    -0.70200
O448        O  0.01667795  0.31758652  0.47378669    -0.61500
O449        O  0.01847237  0.31802298  0.52473059    -0.74000
O450        O  0.01765138  0.26646573  0.47411769    -0.72800
Cu451      Cu  0.97637479  0.29127496  0.50067884     1.04600
Cu452      Cu  0.01941631  0.29218798  0.49948067     1.04300
C453        C  0.99747560  0.25832620  0.46622121     0.93500
C454        C  0.99846548  0.32574450  0.53334261     0.92700
C455        C  0.99615811  0.32526148  0.46637978     0.84800
C456        C  0.99950364  0.25823652  0.53397413     0.91100
C457        C  0.98854488  0.18953269  0.38404505     0.20600
C458        C  0.97370864  0.20348734  0.39914418    -0.39200
C459        C  0.98584207  0.21677440  0.41697356     0.19600
C460        C  0.01083385  0.21636565  0.41934467     0.22300
C461        C  0.02561807  0.20244762  0.40425741    -0.39800
C462        C  0.01347375  0.18895058  0.38665813     0.21000
N463        N  0.98156615  0.17553976  0.36556392    -0.33000
C464        C  0.00213896  0.16571807  0.35639777    -0.10600
C465        C  0.02244485  0.17377577  0.36920451    -0.29400
N466        N  0.01803853  0.23082689  0.43733616    -0.46000
C467        C  0.99751559  0.24048607  0.44662458    -0.05300
C468        C  0.97702264  0.23212815  0.43441713    -0.22600
H469        H  0.95418697  0.20399261  0.39713581     0.19200
H470        H  0.04516354  0.20216414  0.40608137     0.18000
H471        H  0.04134564  0.16979058  0.36595603     0.14200
H472        H  0.95828280  0.23694576  0.43761533     0.14100
H473        H  0.96386957  0.17296238  0.35936212     0.32300
H474        H  0.03586329  0.23408221  0.44283290     0.35000
C475        C  0.97576594  0.18702965  0.24316885     0.20600
C476        C  0.96435451  0.20752043  0.23400717    -0.39200
C477        C  0.97498709  0.21770642  0.21356461     0.19600
C478        C  0.99546406  0.20819420  0.20276483     0.22300
C479        C  0.00681516  0.18739551  0.21184512    -0.39800
C480        C  0.99614431  0.17716254  0.23248007     0.21000
N481        N  0.97141236  0.17674372  0.26453213    -0.33000
C482        C  0.98906694  0.16018404  0.26770242    -0.10600
C483        C  0.00465460  0.15955993  0.24791264    -0.29400
N484        N  0.00409426  0.22345614  0.18592429    -0.46000
C485        C  0.98921782  0.24288876  0.18645549    -0.05300
C486        C  0.97072816  0.23971515  0.20322788    -0.22600
H487        H  0.94935772  0.21601871  0.24324379     0.19200
H488        H  0.02366205  0.18069987  0.20444694     0.18000
H489        H  0.02147288  0.14966760  0.24637176     0.14200
H490        H  0.95743898  0.25287687  0.20884601     0.14100
H491        H  0.95841656  0.18206781  0.27712206     0.32300
H492        H  0.02039560  0.22188432  0.17647666     0.35000
C493        C  0.98801794  0.21497027  0.58033805     0.20600
C494        C  0.97382257  0.20108839  0.59608229    -0.39200
C495        C  0.98654297  0.18878705  0.61411968     0.19600
C496        C  0.01147577  0.19023191  0.61635808     0.22300
C497        C  0.02572916  0.20393429  0.60046078    -0.39800
C498        C  0.01301047  0.21624967  0.58238915     0.21000
N499        N  0.98013924  0.22931556  0.56254556    -0.33000
C500        C  0.00021957  0.23988981  0.55316035    -0.10600
C501        C  0.02111138  0.23203986  0.56497013    -0.29400
N502        N  0.01901770  0.17780734  0.63568717    -0.46000
C503        C  0.99880644  0.16815743  0.64584867    -0.05300
C504        C  0.97815960  0.17468101  0.63273880    -0.22600
H505        H  0.95424821  0.20034221  0.59471473     0.19200
H506        H  0.04522075  0.20534803  0.60235937     0.18000
H507        H  0.03962244  0.23773821  0.56177745     0.14200
H508        H  0.95938955  0.17048310  0.63651462     0.14100
H509        H  0.96213194  0.23217568  0.55747479     0.32300
H510        H  0.03684259  0.17618392  0.64181450     0.35000
C511        C  0.02368922  0.22358017  0.79135627     0.20600
C512        C  0.03509995  0.21612272  0.77010518    -0.39200
C513        C  0.02612900  0.19493507  0.75974235     0.19600
C514        C  0.00730258  0.18189569  0.76985635     0.22300
C515        C  0.99587303  0.18937947  0.79124706    -0.39800
C516        C  0.00478803  0.21075806  0.80162164     0.21000
N517        N  0.02636130  0.24496783  0.80218984    -0.33000
C518        C  0.00897394  0.24614185  0.81937806    -0.10600
C519        C  0.99537674  0.22491206  0.81991206    -0.29400
N520        N  0.00002333  0.16429519  0.75478588    -0.46000
C521        C  0.01395530  0.16653717  0.73479415    -0.05300
C522        C  0.03062580  0.18527862  0.73740732    -0.22600
H523        H  0.04880786  0.22699131  0.76133541     0.19200
H524        H  0.98014617  0.18013396  0.79838357     0.18000
H525        H  0.97903236  0.22155337  0.83017155     0.14200
H526        H  0.04287852  0.19228185  0.72389331     0.14100
H527        H  0.03791723  0.25887789  0.79674828     0.32300
H528        H  0.98499689  0.15301962  0.75695759     0.35000
C529        C  0.98283904  0.40084568  0.39120645     0.20600
C530        C  0.96893164  0.38478310  0.40504042    -0.39200
C531        C  0.98201694  0.37019161  0.42101208     0.19600
C532        C  0.00701203  0.37156595  0.42305111     0.22300
C533        C  0.02087592  0.38771519  0.40934600    -0.39800
C534        C  0.00782559  0.40220876  0.39332362     0.21000
N535        N  0.97486530  0.41616043  0.37427955    -0.33000
C536        C  0.99494643  0.42720538  0.36544281    -0.10600
C537        C  0.01582835  0.41907718  0.37699538    -0.29400
N538        N  0.01518429  0.35565141  0.43928126    -0.46000
C539        C  0.99527363  0.34408851  0.44776610    -0.05300
C540        C  0.97421725  0.35265701  0.43678890    -0.22600
H541        H  0.94940749  0.38357455  0.40332889     0.19200
H542        H  0.04042742  0.38872990  0.41085587     0.18000
H543        H  0.03437971  0.42459614  0.37371343     0.14200
H544        H  0.95573544  0.34682540  0.43991531     0.14100
H545        H  0.95691550  0.41871642  0.36885855     0.32300
H546        H  0.03320756  0.35290674  0.44436209     0.35000
C547        C  0.00870358  0.40035607  0.23538929     0.20600
C548        C  0.02348033  0.38577140  0.22086084    -0.39200
C549        C  0.01196253  0.36585399  0.21023943     0.19600
C550        C  0.98765156  0.36086622  0.21385914     0.22300
C551        C  0.97280055  0.37562712  0.22805160    -0.39800
C552        C  0.98427452  0.39552529  0.23863954     0.21000
N553        N  0.01554944  0.41941171  0.24870724    -0.33000
C554        C  0.99529971  0.42676467  0.26046113    -0.10600
C555        C  0.97540495  0.41242841  0.25445598    -0.29400
N556        N  0.98127172  0.34045449  0.20257182    -0.46000
C557        C  0.00153351  0.33234603  0.19135492    -0.05300
C558        C  0.02111542  0.34784226  0.19579708    -0.22600
H559        H  0.04263268  0.38936008  0.21842791     0.19200
H560        H  0.95381936  0.37160961  0.23107112     0.18000
H561        H  0.95716121  0.41355422  0.26156468     0.14200
H562        H  0.03964491  0.34627246  0.18965393     0.14100
H563        H  0.03303095  0.42655067  0.25021806     0.32300
H564        H  0.96406663  0.33252126  0.20235103     0.35000
C565        C  0.98265288  0.59494577  0.21021355     0.20600
C566        C  0.96844717  0.57705393  0.22126714    -0.39200
C567        C  0.98078064  0.56172262  0.23716486     0.19600
C568        C  0.00537551  0.56404703  0.24163310     0.22300
C569        C  0.01953660  0.58193447  0.23064377    -0.39800
C570        C  0.00721193  0.59721116  0.21478052     0.21000
N571        N  0.97522213  0.61197264  0.19469958    -0.33000
C572        C  0.99525134  0.62524765  0.18935149    -0.10600
C573        C  0.01551742  0.61642608  0.20154054    -0.29400
N574        N  0.01283651  0.54732843  0.25739015    -0.46000
C575        C  0.99288332  0.53420965  0.26308675    -0.05300
C576        C  0.97248409  0.54270735  0.25088873    -0.22600
H577        H  0.94920523  0.57526446  0.21781922     0.19200
H578        H  0.03874018  0.58386127  0.23423698     0.18000
H579        H  0.03384475  0.62343988  0.20097857     0.14200
H580        H  0.95410568  0.53588941  0.25191937     0.14100
H581        H  0.95752813  0.61432492  0.18852467     0.32300
H582        H  0.03041520  0.54509854  0.26401551     0.35000
C583        C  0.00839232  0.74655168  0.20046263     0.20600
C584        C  0.99660951  0.76665009  0.21042956    -0.39200
C585        C  0.00637465  0.77553301  0.23203126     0.19600
C586        C  0.02624407  0.76497997  0.24293978     0.22300
C587        C  0.03808013  0.74505183  0.23297128    -0.39800
C588        C  0.02840625  0.73627999  0.21139688     0.21000
N589        N  0.00020209  0.73235900  0.18257350    -0.33000
C590        C  0.01469807  0.71269434  0.18258101    -0.10600
C591        C  0.03281585  0.71482004  0.19994645    -0.29400
N592        N  0.02998428  0.77443638  0.26482062    -0.46000
C593        C  0.01253653  0.79127233  0.26791686    -0.05300
C594        C  0.99755369  0.79267807  0.24777898    -0.22600
H595        H  0.98010146  0.77383968  0.20278286     0.19200
H596        H  0.05268875  0.73597369  0.24223792     0.18000
H597        H  0.04546556  0.70105182  0.20553797     0.14200
H598        H  0.98110441  0.80310195  0.24592384     0.14100
H599        H  0.98399378  0.73442639  0.17309132     0.32300
H600        H  0.04267589  0.76874484  0.27750821     0.35000
C601        C  0.98413822  0.58581065  0.42406965     0.20600
C602        C  0.96924755  0.57239884  0.40856783    -0.39200
C603        C  0.98133074  0.55606678  0.39356091     0.19600
C604        C  0.00629092  0.55333042  0.39406110     0.22300
C605        C  0.02113276  0.56663844  0.40959802    -0.39800
C606        C  0.00908793  0.58300846  0.42449765     0.21000
N607        N  0.97722752  0.60288152  0.43970684    -0.33000
C608        C  0.99795658  0.61103576  0.45003050    -0.10600
C609        C  0.01819077  0.59903806  0.44104992    -0.29400
N610        N  0.01346440  0.53713410  0.37770858    -0.46000
C611        C  0.99296550  0.52948507  0.36666853    -0.05300
C612        C  0.97249269  0.54078254  0.37610312    -0.22600
H613        H  0.94976371  0.57471224  0.40803270     0.19200
H614        H  0.04065718  0.56461576  0.40983674     0.18000
H615        H  0.03701571  0.60179710  0.44586469     0.14200
H616        H  0.95378233  0.53837741  0.37070153     0.14100
H617        H  0.95955564  0.60879469  0.44296103     0.32300
H618        H  0.03125348  0.53173651  0.37416227     0.35000
C619        C  0.01063043  0.76418621  0.38507307     0.20600
C620        C  0.02474318  0.75010673  0.40049835    -0.39200
C621        C  0.01198624  0.73820000  0.41872011     0.19600
C622        C  0.98708073  0.74010966  0.42139330     0.22300
C623        C  0.97300316  0.75440429  0.40607917    -0.39800
C624        C  0.98579697  0.76637191  0.38786762     0.21000
N625        N  0.01829060  0.77662551  0.36587743    -0.33000
C626        C  0.99827384  0.78711539  0.35645305    -0.10600
C627        C  0.97759439  0.78102456  0.36973848    -0.29400
N628        N  0.97919922  0.72602890  0.43940121    -0.46000
C629        C  0.99929288  0.71514085  0.44816254    -0.05300
C630        C  0.02006914  0.72238992  0.43584255    -0.22600
H631        H  0.04414774  0.74820724  0.39821344     0.19200
H632        H  0.95350888  0.75578295  0.40794343     0.18000
H633        H  0.95894016  0.78598479  0.36648957     0.14200
H634        H  0.03850799  0.71632882  0.43858662     0.14100
H635        H  0.03607125  0.77788472  0.35948280     0.32300
H636        H  0.96128298  0.72361620  0.44504261     0.35000
C637        C  0.01307974  0.76933344  0.61439180     0.20600
C638        C  0.02660910  0.75881205  0.59571993    -0.39200
C639        C  0.01396067  0.74255304  0.58096135     0.19600
C640        C  0.98966491  0.73728214  0.58447700     0.22300
C641        C  0.97619093  0.74768337  0.60320663    -0.39800
C642        C  0.98886262  0.76388261  0.61797960     0.21000
N643        N  0.02094988  0.78514327  0.63100409    -0.33000
C644        C  0.00157829  0.78982894  0.64542048    -0.10600
C645        C  0.98127495  0.77681256  0.63772895    -0.29400
N646        N  0.98188450  0.72114235  0.56819642    -0.46000
C647        C  0.00139718  0.71591083  0.55430056    -0.05300
C648        C  0.02175781  0.72892127  0.56170745    -0.22600
H649        H  0.04562244  0.76287147  0.59297432     0.19200
H650        H  0.95725693  0.74338711  0.60613603     0.18000
H651        H  0.96336192  0.77676612  0.64570220     0.14200
H652        H  0.03985529  0.72828297  0.55418352     0.14100
H653        H  0.03853355  0.79195941  0.63228141     0.32300
H654        H  0.96448534  0.71375386  0.56693248     0.35000
C655        C  0.97837647  0.76946254  0.75934279     0.20600
C656        C  0.96695921  0.74924242  0.76934064    -0.39200
C657        C  0.97853287  0.73885867  0.78918170     0.19600
C658        C  0.99999386  0.74783134  0.79850545     0.22300
C659        C  0.01149413  0.76817201  0.78843958    -0.39800
C660        C  0.99976740  0.77872849  0.76854683     0.21000
N661        N  0.97257033  0.78034228  0.73859280    -0.33000
C662        C  0.99020462  0.79682490  0.73433035    -0.10600
C663        C  0.00744375  0.79652515  0.75277555    -0.29400
N664        N  0.00892004  0.73271263  0.81528106    -0.46000
C665        C  0.99320416  0.71388330  0.81626029    -0.05300
C666        C  0.97393871  0.71729165  0.80042461    -0.22600
H667        H  0.95095887  0.74127249  0.76132014     0.19200
H668        H  0.02894746  0.77448584  0.79476718     0.18000
H669        H  0.02457132  0.80607672  0.75318501     0.14200
H670        H  0.95975679  0.70452717  0.79602903     0.14100
H671        H  0.95848037  0.77551287  0.72699807     0.32300
H672        H  0.02578311  0.73392555  0.82375473     0.35000
C673        C  0.00955407  0.40333873  0.60688372     0.20600
C674        C  0.02377888  0.38977604  0.59092707    -0.39200
C675        C  0.01111174  0.37320475  0.57657910     0.19600
C676        C  0.98618459  0.37043483  0.57797708     0.22300
C677        C  0.97195982  0.38407458  0.59384410    -0.39800
C678        C  0.98462036  0.40061433  0.60821373     0.21000
N679        N  0.01728054  0.41982360  0.62283767    -0.33000
C680        C  0.99712990  0.42768952  0.63439918    -0.10600
C681        C  0.97638594  0.41618280  0.62569754    -0.29400
N682        N  0.97852943  0.35326721  0.56273389    -0.46000
C683        C  0.99871423  0.34496852  0.55157790    -0.05300
C684        C  0.01940581  0.35701055  0.55969867    -0.22600
H685        H  0.04328878  0.39180082  0.58993611     0.19200
H686        H  0.95248985  0.38181468  0.59506584     0.18000
H687        H  0.95784701  0.41861761  0.63161989     0.14200
H688        H  0.03799171  0.35421146  0.55408797     0.14100
H689        H  0.03518098  0.42527704  0.62578737     0.32300
H690        H  0.96068304  0.34743130  0.56020076     0.35000
C691        C  0.01352525  0.55713336  0.61167789     0.20600
C692        C  0.02784723  0.57061046  0.59565734    -0.39200
C693        C  0.01512748  0.58662483  0.58077931     0.19600
C694        C  0.99014180  0.58898156  0.58188024     0.22300
C695        C  0.97592513  0.57563884  0.59789844    -0.39800
C696        C  0.98856134  0.55963968  0.61264853     0.21000
N697        N  0.02096179  0.54026417  0.62733249    -0.33000
C698        C  0.00050736  0.53200514  0.63816967    -0.10600
C699        C  0.98000069  0.54371323  0.62950946    -0.29400
N700        N  0.98225624  0.60502204  0.56572164    -0.46000
C701        C  0.00231383  0.61303871  0.55420342    -0.05300
C702        C  0.02323010  0.60204271  0.56308290    -0.22600
H703        H  0.04735177  0.56861130  0.59468180     0.19200
H704        H  0.95638696  0.57739513  0.59862941     0.18000
H705        H  0.96129353  0.54075408  0.63466301     0.14200
H706        H  0.04176958  0.60486599  0.55729179     0.14100
H707        H  0.03874679  0.53449651  0.63021229     0.32300
H708        H  0.96430688  0.61020427  0.56272081     0.35000
C709        C  0.01509827  0.59271710  0.79156995     0.20600
C710        C  0.02780392  0.57350722  0.78105438    -0.39200
C711        C  0.01403338  0.55792888  0.76655022     0.19600
C712        C  0.98944294  0.56117027  0.76279733     0.22300
C713        C  0.97674619  0.58046089  0.77321719    -0.39800
C714        C  0.99055583  0.59605551  0.78772006     0.21000
N715        N  0.02411784  0.61007275  0.80594313    -0.33000
C716        C  0.00516971  0.62471099  0.81138790    -0.10600
C717        C  0.98397297  0.61646687  0.80020656    -0.29400
N718        N  0.98072490  0.54435783  0.74761720    -0.46000
C719        C  0.99996915  0.53044969  0.74146277    -0.05300
C720        C  0.02100885  0.53830961  0.75304395    -0.22600
H721        H  0.04707465  0.57100639  0.78376585     0.19200
H722        H  0.95758214  0.58325976  0.77008466     0.18000
H723        H  0.96610685  0.62444529  0.80114504     0.14200
H724        H  0.03913852  0.53110518  0.75120384     0.14100
H725        H  0.04215208  0.61170051  0.81140724     0.32300
H726        H  0.96298350  0.54296793  0.74116791     0.35000
C727        C  0.98302140  0.39690612  0.76353014     0.20600
C728        C  0.96841893  0.38239396  0.77833234    -0.39200
C729        C  0.98065498  0.36457209  0.79142689     0.19600
C730        C  0.00546571  0.36136328  0.78971613     0.22300
C731        C  0.02008394  0.37592964  0.77504849    -0.39800
C732        C  0.00789396  0.39383070  0.76210403     0.21000
N733        N  0.97580955  0.41490236  0.74907529    -0.33000
C734        C  0.99627667  0.42341088  0.73849522    -0.10600
C735        C  0.01663942  0.41071930  0.74619491    -0.29400
N736        N  0.01259334  0.34272994  0.80327939    -0.46000
C737        C  0.99227549  0.33396827  0.81394686    -0.05300
C738        C  0.97192702  0.34726123  0.80697214    -0.22600
H739        H  0.94895922  0.38469736  0.77944605     0.19200
H740        H  0.03949944  0.37339333  0.77367850     0.18000
H741        H  0.03529914  0.41336328  0.74071188     0.14200
H742        H  0.95317120  0.34440920  0.81190581     0.14100
H743        H  0.95807881  0.42098579  0.74653583     0.32300
H744        H  0.03023913  0.33612515  0.80500470     0.35000
C745        C  0.90673329  0.90991981  0.29323530     0.20600
C746        C  0.93053210  0.90368831  0.28640913    -0.39200
C747        C  0.93777860  0.88005480  0.29193913     0.19600
C748        C  0.92242735  0.86401692  0.30339877     0.22300
C749        C  0.89879286  0.87022635  0.31022894    -0.39800
C750        C  0.89161112  0.89371390  0.30472594     0.21000
N751        N  0.89601452  0.93164497  0.29167917    -0.33000
C752        C  0.87401558  0.92923248  0.30247185    -0.10600
C753        C  0.87068420  0.90571654  0.31066316    -0.29400
N754        N  0.93410350  0.84361741  0.30884381    -0.46000
C755        C  0.95728575  0.84659367  0.30119196    -0.05300
C756        C  0.96018508  0.86898380  0.29011869    -0.22600
H757        H  0.94278601  0.91653916  0.27824013     0.19200
H758        H  0.88717079  0.85794982  0.32003049     0.18000
H759        H  0.85542560  0.89851653  0.32058448     0.14200
H760        H  0.97687232  0.87691904  0.28357650     0.14100
H761        H  0.90376524  0.94742292  0.28494265     0.32300
H762        H  0.92689499  0.82908782  0.31834659     0.35000
C763        C  0.91400471  0.03251793  0.30082523     0.20600
C764        C  0.92869531  0.04805575  0.28696082    -0.39200
C765        C  0.94383245  0.06383714  0.30007334     0.19600
C766        C  0.94419645  0.06391107  0.32493780     0.22300
C767        C  0.92987306  0.04833500  0.33862154    -0.39800
C768        C  0.91480251  0.03284639  0.32566105     0.21000
N769        N  0.89657929  0.01718695  0.29316438    -0.33000
C770        C  0.88614774  0.00816864  0.31342227    -0.10600
C771        C  0.89736871  0.01734612  0.33389749    -0.29400
N772        N  0.95857005  0.08143415  0.33337368    -0.46000
C773        C  0.96761788  0.09293156  0.31388501    -0.05300
C774        C  0.95907486  0.08228131  0.29267595    -0.22600
H775        H  0.92779865  0.04842530  0.26753825     0.19200
H776        H  0.92974949  0.04890966  0.35806422     0.18000
H777        H  0.89284344  0.01384850  0.35249112     0.14200
H778        H  0.96263757  0.08791191  0.27440295     0.14100
H779        H  0.89132507  0.01402454  0.27541385     0.32300
H780        H  0.96168135  0.08543950  0.35145195     0.35000
C781        C  0.61683091  0.98936622  0.21200567     0.20600
C782        C  0.60154371  0.00347402  0.22641558    -0.39200
C783        C  0.58288599  0.99109755  0.23833868     0.19600
C784        C  0.57972581  0.96648751  0.23623768     0.22300
C785        C  0.59489355  0.95238649  0.22156819    -0.39800
C786        C  0.61350509  0.96484137  0.20947507     0.21000
N787        N  0.63632238  0.99678169  0.19949928    -0.33000
C788        C  0.64550180  0.97697471  0.18853954    -0.10600
C789        C  0.63163027  0.95663291  0.19440050    -0.29400
N790        N  0.56136741  0.95894953  0.25038494    -0.46000
C791        C  0.55279480  0.97896075  0.26150266    -0.05300
C792        C  0.56566609  0.99934001  0.25426932    -0.22600
H793        H  0.60421633  0.02265330  0.22849956     0.19200
H794        H  0.59260446  0.93311434  0.21996085     0.18000
H795        H  0.63459013  0.93818824  0.18902225     0.14200
H796        H  0.56319919  0.01765160  0.26039483     0.14100
H797        H  0.64311993  0.01429508  0.19856162     0.32300
H798        H  0.55532903  0.94128646  0.25264028     0.35000
C799        C  0.77057203  0.98352382  0.20108546     0.20600
C800        C  0.79195164  0.97205449  0.20894177    -0.39200
C801        C  0.80248497  0.98128892  0.23012781     0.19600
C802        C  0.79237713  0.00051924  0.24233808     0.22300
C803        C  0.77117003  0.01189652  0.23454283    -0.39800
C804        C  0.76067816  0.00264649  0.21361561     0.21000
N805        N  0.75523787  0.97618418  0.18364177    -0.33000
C806        C  0.73537862  0.99047162  0.18553791    -0.10600
C807        C  0.73829835  0.00729868  0.20385840    -0.29400
N808        N  0.80317388  0.00362433  0.26366649    -0.46000
C809        C  0.82013654  0.98615214  0.26554919    -0.05300
C810        C  0.82064995  0.97206950  0.24472487    -0.22600
H811        H  0.79892563  0.95613932  0.20014581     0.19200
H812        H  0.76248324  0.02585359  0.24501750     0.18000
H813        H  0.72487441  0.01980340  0.21056492     0.14200
H814        H  0.83071042  0.95560769  0.24195728     0.14100
H815        H  0.75711990  0.96100987  0.17270932     0.32300
H816        H  0.79771892  0.01553712  0.27717696     0.35000
C817        C  0.11082822  0.05821217  0.29915896     0.20600
C818        C  0.10569212  0.08220993  0.30503690    -0.39200
C819        C  0.08187322  0.08977138  0.30065958     0.19600
C820        C  0.06450804  0.07465307  0.29089631     0.22300
C821        C  0.06967445  0.05059248  0.28495201    -0.39800
C822        C  0.09353388  0.04294556  0.28950277     0.21000
N823        N  0.13135360  0.04622750  0.30395519    -0.33000
C824        C  0.12723658  0.02301759  0.29757037    -0.10600
C825        C  0.10388060  0.02031853  0.28813955    -0.29400
N826        N  0.04269200  0.08544806  0.29073432    -0.46000
C827        C  0.04608963  0.10741200  0.30087693    -0.05300
C828        C  0.07040465  0.11082814  0.30703771    -0.22600
H829        H  0.11895702  0.09378617  0.31356203     0.19200
H830        H  0.05584286  0.03843126  0.27833950     0.18000
H831        H  0.09504955  0.00377560  0.28272894     0.14200
H832        H  0.07835618  0.12602712  0.31632460     0.14100
H833        H  0.14688388  0.05336093  0.31202107     0.32300
H834        H  0.02622563  0.07761226  0.28577013     0.35000
C835        C  0.09153443  0.91714565  0.30050591     0.20600
C836        C  0.07481194  0.90326534  0.28722799    -0.39200
C837        C  0.06191626  0.88571677  0.30034018     0.19600
C838        C  0.06557790  0.88232352  0.32467763     0.22300
C839        C  0.08216718  0.89609840  0.33786509    -0.39800
C840        C  0.09489885  0.91355066  0.32485040     0.21000
N841        N  0.10648555  0.93461999  0.29241610    -0.33000
C842        C  0.11952607  0.94200059  0.31181158    -0.10600
C843        C  0.11252828  0.92928189  0.33233393    -0.29400
N844        N  0.05141253  0.86461948  0.33309251    -0.46000
C845        C  0.03837709  0.85644104  0.31407374    -0.05300
C846        C  0.04445096  0.86923622  0.29325601    -0.22600
H847        H  0.07211225  0.90585472  0.26814683     0.19200
H848        H  0.08507405  0.89331321  0.35689686     0.18000
H849        H  0.11949652  0.93097816  0.35041853     0.14200
H850        H  0.03728277  0.86677062  0.27533486     0.14100
H851        H  0.10812045  0.94062886  0.27470522     0.32300
H852        H  0.05070312  0.85879542  0.35090561     0.35000
C853        C  0.38036084  0.97270551  0.21212859     0.20600
C854        C  0.39417266  0.95840991  0.22770980    -0.39200
C855        C  0.41382329  0.96994568  0.23885173     0.19600
C856        C  0.41921657  0.99395176  0.23493011     0.22300
C857        C  0.40545195  0.00822781  0.21921443    -0.39800
C858        C  0.38584089  0.99662037  0.20795875     0.21000
N859        N  0.36067225  0.96601542  0.19958663    -0.33000
C860        C  0.35342588  0.98571145  0.18717084    -0.10600
C861        C  0.36882040  0.00522593  0.19197513    -0.29400
N862        N  0.43835045  0.00081092  0.24830573    -0.46000
C863        C  0.44524520  0.98096492  0.26069599    -0.05300
C864        C  0.43042544  0.96135385  0.25519884    -0.22600
H865        H  0.38983584  0.93970987  0.23103617     0.19200
H866        H  0.40958908  0.02701100  0.21611856     0.18000
H867        H  0.36789083  0.02332432  0.18498171     0.14200
H868        H  0.43127996  0.94340660  0.26266617     0.14100
H869        H  0.35258073  0.94899475  0.19941614     0.32300
H870        H  0.44605623  0.01795594  0.24916247     0.35000
C871        C  0.22973695  0.97961707  0.19545239     0.20600
C872        C  0.21001399  0.99173776  0.20598214    -0.39200
C873        C  0.19818440  0.97962244  0.22486053     0.19600
C874        C  0.20559421  0.95716951  0.23266255     0.22300
C875        C  0.22520748  0.94507651  0.22213407    -0.39800
C876        C  0.23698392  0.95715079  0.20335568     0.21000
N877        N  0.24609593  0.98871256  0.17990209    -0.33000
C878        C  0.26398104  0.97208909  0.17825347    -0.10600
C879        C  0.25881576  0.95211171  0.19246672    -0.29400
N880        N  0.19443424  0.95128888  0.25329452    -0.46000
C881        C  0.17982295  0.97002912  0.25887887    -0.05300
C882        C  0.18139716  0.98794795  0.24137423    -0.22600
H883        H  0.20532954  0.00995796  0.20100151     0.19200
H884        H  0.23196408  0.92827179  0.22926928     0.18000
H885        H  0.27066700  0.93708292  0.19622569     0.14200
H886        H  0.17383747  0.00587327  0.24231500     0.14100
H887        H  0.24635738  0.00611396  0.17280992     0.32300
H888        H  0.19840286  0.93654591  0.26424547     0.35000
C889        C  0.38663336  0.97048496  0.42007798     0.20600
C890        C  0.40178507  0.95624917  0.40568740    -0.39200
C891        C  0.41707030  0.96880694  0.38992109     0.19600
C892        C  0.41721516  0.99366183  0.38849108     0.22300
C893        C  0.40193377  0.00792481  0.40281325    -0.39800
C894        C  0.38669767  0.99534563  0.41870236     0.21000
N895        N  0.37091528  0.96285381  0.43688541    -0.33000
C896        C  0.36090720  0.98296769  0.44639774    -0.10600
C897        C  0.37022879  0.00361594  0.43546017    -0.29400
N898        N  0.43378947  0.00119862  0.37239725    -0.46000
C899        C  0.44424112  0.98096873  0.36356324    -0.05300
C900        C  0.43424303  0.96043168  0.37403536    -0.22600
H901        H  0.40187489  0.93682062  0.40688686     0.19200
H902        H  0.40210817  0.02736669  0.40186990     0.18000
H903        H  0.36570316  0.02214088  0.43937039     0.14200
H904        H  0.43905854  0.94187772  0.37063203     0.14100
H905        H  0.36735849  0.94504459  0.44171975     0.32300
H906        H  0.43783451  0.01897708  0.36781523     0.35000
C907        C  0.21292711  0.99417770  0.37847875     0.20600
C908        C  0.22214298  0.00757197  0.39787822    -0.39200
C909        C  0.23624453  0.99472416  0.41449250     0.19600
C910        C  0.24083656  0.97039887  0.41195667     0.22300
C911        C  0.23193146  0.95709526  0.39235305    -0.39800
C912        C  0.21781331  0.96995259  0.37575959     0.21000
N913        N  0.19789993  0.00191890  0.36108430    -0.33000
C914        C  0.19296985  0.98239106  0.34715501    -0.10600
C915        C  0.20549658  0.96225251  0.35560500    -0.29400
N916        N  0.25465827  0.96237010  0.43018180    -0.46000
C917        C  0.25912080  0.98175192  0.44435556    -0.05300
C918        C  0.24789771  0.00226799  0.43512737    -0.22600
H919        H  0.21833016  0.02653312  0.40005850     0.19200
H920        H  0.23545156  0.93805771  0.39034537     0.18000
H921        H  0.20471324  0.94412352  0.34854598     0.14200
H922        H  0.24861466  0.02036455  0.44227406     0.14100
H923        H  0.19123810  0.01927100  0.35942702     0.32300
H924        H  0.26124139  0.94491489  0.43245855     0.35000
C925        C  0.05835500  0.06882995  0.67862681     0.20600
C926        C  0.07197753  0.05275431  0.66481482    -0.39200
C927        C  0.08779307  0.03790696  0.67759806     0.19600
C928        C  0.08990680  0.03870890  0.70235192     0.22300
C929        C  0.07607822  0.05484539  0.71629389    -0.39800
C930        C  0.06018404  0.06991034  0.70340221     0.21000
N931        N  0.04318607  0.08567792  0.67035974    -0.33000
C932        C  0.03514624  0.09786973  0.68987938    -0.10600
C933        C  0.04514928  0.08839168  0.71094017    -0.29400
N934        N  0.10730972  0.02340537  0.70985054    -0.46000
C935        C  0.11641830  0.01316352  0.68959328    -0.05300
C936        C  0.10447163  0.02168937  0.66923841    -0.22600
H937        H  0.07087009  0.05234194  0.64539786     0.19200
H938        H  0.07798694  0.05600854  0.73561226     0.18000
H939        H  0.04259570  0.09478013  0.72913383     0.14200
H940        H  0.10790590  0.01711072  0.65064521     0.14100
H941        H  0.03884934  0.08876990  0.65235913     0.32300
H942        H  0.11330623  0.02087680  0.72747164     0.35000
C943        C  0.11057216  0.89865915  0.70048947     0.20600
C944        C  0.10476891  0.87502600  0.69377058    -0.39200
C945        C  0.08118198  0.86736044  0.69925741     0.19600
C946        C  0.06457739  0.88202063  0.71074378     0.22300
C947        C  0.07046689  0.90572094  0.71762495    -0.39800
C948        C  0.09413198  0.91348843  0.71199858     0.21000
N949        N  0.13084896  0.91079437  0.69485217    -0.33000
C950        C  0.12745777  0.93370510  0.70255844    -0.10600
C951        C  0.10482229  0.93601145  0.71368926    -0.29400
N952        N  0.04258223  0.87138880  0.71137101    -0.46000
C953        C  0.04512298  0.85001778  0.69979301    -0.05300
C954        C  0.06911824  0.84678568  0.69238586    -0.22600
H955        H  0.11729056  0.86386660  0.68377622     0.19200
H956        H  0.05722253  0.91762408  0.72563396     0.18000
H957        H  0.09652087  0.95233509  0.72032997     0.14200
H958        H  0.07648468  0.83211668  0.68191033     0.14100
H959        H  0.14564359  0.90399402  0.68532336     0.32300
H960        H  0.02649489  0.87906392  0.71758411     0.35000
C961        C  0.21190483  0.98873382  0.62029345     0.20600
C962        C  0.22617747  0.00314174  0.60513847    -0.39200
C963        C  0.23765841  0.99111371  0.58611794     0.19600
C964        C  0.23535244  0.96656544  0.58260671     0.22300
C965        C  0.22102923  0.95216625  0.59776922    -0.39800
C966        C  0.20930942  0.96426566  0.61663401     0.21000
N967        N  0.19916940  0.99582333  0.63961546    -0.33000
C968        C  0.18808311  0.97581836  0.64830424    -0.10600
C969        C  0.19409108  0.95572014  0.63435248    -0.29400
N970        N  0.24840692  0.95945449  0.56344483    -0.46000
C971        C  0.25892312  0.97967937  0.55458552    -0.05300
C972        C  0.25264417  0.99975840  0.56827837    -0.22600
H973        H  0.22816729  0.02231285  0.60792520     0.19200
H974        H  0.21910621  0.93297833  0.59505777     0.18000
H975        H  0.18852842  0.93723334  0.63678941     0.14200
H976        H  0.25860266  0.01814722  0.56575753     0.14100
H977        H  0.19799007  0.01326649  0.64649367     0.32300
H978        H  0.25017036  0.94193282  0.55689859     0.35000
C979        C  0.21026162  0.00392827  0.76080461     0.20600
C980        C  0.23102880  0.01549251  0.76963207    -0.39200
C981        C  0.24022852  0.00665019  0.79132195     0.19600
C982        C  0.22962162  0.98762129  0.80347218     0.22300
C983        C  0.20864221  0.97605974  0.79462559    -0.39800
C984        C  0.19931265  0.98500462  0.77281913     0.21000
N985        N  0.20033892  0.00692812  0.73902616    -0.33000
C986        C  0.18286557  0.98989332  0.73686908    -0.10600
C987        C  0.18141271  0.97598700  0.75774420    -0.29400
N988        N  0.24421159  0.98011526  0.82141653    -0.46000
C989        C  0.26439236  0.99410858  0.82022392    -0.05300
C990        C  0.26224085  0.01116014  0.80199579    -0.22600
H991        H  0.24036320  0.02928338  0.75945091     0.19200
H992        H  0.20109855  0.96027909  0.80324072     0.18000
H993        H  0.17057794  0.95996203  0.76047819     0.14200
H994        H  0.27621151  0.02325362  0.79552699     0.14100
H995        H  0.20629393  0.01878818  0.72568124     0.32300
H996        H  0.24190354  0.96468045  0.83188391     0.35000
C997        C  0.60518528  0.96691508  0.42471408     0.20600
C998        C  0.58933745  0.95308407  0.41056174    -0.39200
C999        C  0.57419254  0.96604632  0.39501374     0.19600
C1000       C  0.57464249  0.99090885  0.39378270     0.22300
C1001       C  0.59036529  0.00476436  0.40807243    -0.39800
C1002       C  0.60564436  0.99177890  0.42350461     0.21000
N1003       N  0.62186105  0.95884647  0.44037916    -0.33000
C1004       C  0.63305112  0.97870580  0.44923846    -0.10600
C1005       C  0.62338479  0.99959463  0.43916069    -0.29400
N1006       N  0.55913650  0.99884412  0.37691693    -0.46000
C1007       C  0.54888664  0.97887512  0.36720591    -0.05300
C1008       C  0.55769189  0.95809028  0.37816763    -0.22600
H1009       H  0.58913493  0.93363279  0.41127234     0.19200
H1010       H  0.59096682  0.02418994  0.40694561     0.18000
H1011       H  0.62873934  0.01800115  0.44269586     0.14200
H1012       H  0.55301276  0.93963260  0.37402102     0.14100
H1013       H  0.62545892  0.94094466  0.44470915     0.32300
H1014       H  0.55607573  0.01669940  0.37199228     0.35000
C1015       C  0.75928516  0.98667723  0.41485473     0.20600
C1016       C  0.76985471  0.99972364  0.39587110    -0.39200
C1017       C  0.78597422  0.98683048  0.38112558     0.19600
C1018       C  0.79114773  0.96282746  0.38499978     0.22300
C1019       C  0.78043233  0.94974841  0.40383326    -0.39800
C1020       C  0.76430517  0.96259070  0.41854716     0.21000
N1021       N  0.74336747  0.99472030  0.43136087    -0.33000
C1022       C  0.73807111  0.97557791  0.44557966    -0.10600
C1023       C  0.75076374  0.95520200  0.43807834    -0.29400
N1024       N  0.80704803  0.95465784  0.36858025    -0.46000
C1025       C  0.81215413  0.97358648  0.35396232    -0.05300
C1026       C  0.79921415  0.99395105  0.36129321    -0.22600
H1027       H  0.76582391  0.01851384  0.39280441     0.19200
H1028       H  0.78434948  0.93091806  0.40679550     0.18000
H1029       H  0.75008703  0.93736016  0.44581617     0.14200
H1030       H  0.79947204  0.01159355  0.35308998     0.14100
H1031       H  0.73623873  0.01206451  0.43264015     0.32300
H1032       H  0.81363362  0.93712617  0.36755717     0.35000
C1033       C  0.91033432  0.92262944  0.67460514     0.20600
C1034       C  0.92208617  0.90507958  0.66079139    -0.39200
C1035       C  0.93893363  0.89077766  0.67297953     0.19600
C1036       C  0.94409204  0.89379544  0.69707984     0.22300
C1037       C  0.93235437  0.91162520  0.71096991    -0.39800
C1038       C  0.91509450  0.92586527  0.69876736     0.21000
N1039       N  0.89237301  0.93708854  0.66732495    -0.33000
C1040       C  0.88497293  0.94967765  0.68693063    -0.10600
C1041       C  0.89908084  0.94338331  0.70693078    -0.29400
N1042       N  0.96018241  0.87702168  0.70446399    -0.46000
C1043       C  0.96506731  0.86309815  0.68491303    -0.05300
C1044       C  0.95212346  0.87142229  0.66496158    -0.22600
H1045       H  0.91779994  0.90223160  0.64202023     0.19200
H1046       H  0.93584324  0.91375268  0.72998460     0.18000
H1047       H  0.89721634  0.94988300  0.72516117     0.14200
H1048       H  0.95195171  0.86422654  0.64690755     0.14100
H1049       H  0.88538199  0.93765799  0.64992351     0.32300
H1050       H  0.96689814  0.87488551  0.72185594     0.35000
C1051       C  0.78913490  0.97141176  0.61860707     0.20600
C1052       C  0.77500749  0.95603240  0.60407759    -0.39200
C1053       C  0.76316054  0.96691436  0.58450793     0.19600
C1054       C  0.76526037  0.99127028  0.57989053     0.22300
C1055       C  0.77958725  0.00656632  0.59428216    -0.39800
C1056       C  0.79147459  0.99568394  0.61380539     0.21000
N1057       N  0.80164846  0.96558316  0.63850995    -0.33000
C1058       C  0.81237100  0.98613278  0.64653285    -0.10600
C1059       C  0.80635677  0.00538730  0.63144353    -0.29400
N1060       N  0.75131759  0.99751951  0.56106034    -0.46000
C1061       C  0.74015071  0.97708882  0.55347161    -0.05300
C1062       C  0.74726095  0.95750905  0.56759752    -0.22600
H1063       H  0.77308184  0.93705225  0.60796275     0.19200
H1064       H  0.78106798  0.02564695  0.59073125     0.18000
H1065       H  0.81185376  0.02399354  0.63309961     0.14200
H1066       H  0.74097206  0.93910139  0.56625300     0.14100
H1067       H  0.80294060  0.94851398  0.64623194     0.32300
H1068       H  0.74907258  0.01482026  0.55413010     0.35000
C1069       C  0.93643694  0.07966344  0.71377985     0.20600
C1070       C  0.93044147  0.05555849  0.71907675    -0.39200
C1071       C  0.90663049  0.04827891  0.71317741     0.19600
C1072       C  0.89015295  0.06387556  0.70282144     0.22300
C1073       C  0.89603803  0.08791823  0.69782943    -0.39800
C1074       C  0.91972305  0.09512232  0.70360967     0.21000
N1075       N  0.95858300  0.09009213  0.71451610    -0.33000
C1076       C  0.95596612  0.11214862  0.70431692    -0.10600
C1077       C  0.93183211  0.11597470  0.69776154    -0.29400
N1078       N  0.86983930  0.05214422  0.69625978    -0.46000
C1079       C  0.87317891  0.02875916  0.70232777    -0.05300
C1080       C  0.89585007  0.02572592  0.71328243    -0.22600
H1081       H  0.94372237  0.04304627  0.72599753     0.19200
H1082       H  0.88352525  0.09978392  0.68871085     0.18000
H1083       H  0.92445312  0.13119423  0.68813902     0.14200
H1084       H  0.90413216  0.00898623  0.71878619     0.14100
H1085       H  0.97481247  0.08190121  0.71961532     0.32300
H1086       H  0.85504082  0.05951116  0.68716775     0.35000
C1087       C  0.78943502  0.95918571  0.75890175     0.20600
C1088       C  0.76843831  0.94769305  0.76744152    -0.39200
C1089       C  0.75819386  0.95731464  0.78839962     0.19600
C1090       C  0.76811744  0.97691884  0.80019266     0.22300
C1091       C  0.78922985  0.98848369  0.79158807    -0.39800
C1092       C  0.79955497  0.97882152  0.77047673     0.21000
N1093       N  0.80034057  0.95540327  0.73765297    -0.33000
C1094       C  0.81760435  0.97266057  0.73531496    -0.10600
C1095       C  0.81787886  0.98752177  0.75563750    -0.29400
N1096       N  0.75307846  0.98451845  0.81778436    -0.46000
C1097       C  0.73328272  0.96996579  0.81678534    -0.05300
C1098       C  0.73603484  0.95261985  0.79886101    -0.22600
H1099       H  0.75979814  0.93323616  0.75758059     0.19200
H1100       H  0.79625186  0.00466503  0.79989997     0.18000
H1101       H  0.82817125  0.00395083  0.75801702     0.14200
H1102       H  0.72256558  0.93979796  0.79276097     0.14100
H1103       H  0.79504584  0.94292471  0.72457971     0.32300
H1104       H  0.75501512  0.00006996  0.82815845     0.35000
C1105       C  0.60519684  0.99073064  0.57562153     0.20600
C1106       C  0.58927349  0.00491604  0.58936279    -0.39200
C1107       C  0.57310658  0.99226018  0.60430867     0.19600
C1108       C  0.57270972  0.96738606  0.60530451     0.22300
C1109       C  0.58844666  0.95322930  0.59141336    -0.39800
C1110       C  0.60471547  0.96586392  0.57665451     0.21000
N1111       N  0.62270761  0.99830351  0.56053386    -0.33000
C1112       C  0.63344069  0.97814720  0.55188657    -0.10600
C1113       C  0.62265995  0.95756479  0.56154035    -0.29400
N1114       N  0.55667196  0.95969234  0.62183934    -0.46000
C1115       C  0.54690540  0.97977833  0.63169314    -0.05300
C1116       C  0.55650655  0.00045705  0.62100483    -0.22600
H1117       H  0.58980673  0.02437295  0.58886342     0.19200
H1118       H  0.58839402  0.93378947  0.59241684     0.18000
H1119       H  0.62732364  0.93900923  0.55794829     0.14200
H1120       H  0.55251271  0.01898077  0.62545692     0.14100
H1121       H  0.62708217  0.01627484  0.55626826     0.32300
H1122       H  0.55315288  0.94187094  0.62665779     0.35000
C1123       C  0.41516204  0.99128616  0.61304061     0.20600
C1124       C  0.39900236  0.00554872  0.59972379    -0.39200
C1125       C  0.38567724  0.99346386  0.58187837     0.19600
C1126       C  0.38823431  0.96905233  0.57770368     0.22300
C1127       C  0.40436573  0.95482584  0.59101482    -0.39800
C1128       C  0.41765489  0.96687730  0.60884253     0.21000
N1129       N  0.43032704  0.99851102  0.63056403    -0.33000
C1130       C  0.44254228  0.97854721  0.63756923    -0.10600
C1131       C  0.43502504  0.95844468  0.62451247    -0.29400
N1132       N  0.37347328  0.96180969  0.55989335    -0.46000
C1133       C  0.36141957  0.98170193  0.55256037    -0.05300
C1134       C  0.36858218  0.00184844  0.56583031    -0.22600
H1135       H  0.39704030  0.02464742  0.60293532     0.19200
H1136       H  0.40647236  0.93576448  0.58767496     0.18000
H1137       H  0.44179597  0.94024252  0.62588804     0.14200
H1138       H  0.36198061  0.02008499  0.56412970     0.14100
H1139       H  0.43245850  0.01597902  0.63713768     0.32300
H1140       H  0.37167726  0.94428316  0.55311660     0.35000
C1141       C  0.57863244  0.99235125  0.76436430     0.20600
C1142       C  0.59203862  0.00661845  0.78055382    -0.39200
C1143       C  0.61113527  0.99496667  0.79258837     0.19600
C1144       C  0.61635563  0.97096035  0.78877584     0.22300
C1145       C  0.60285649  0.95666275  0.77277427    -0.39800
C1146       C  0.58380423  0.96828075  0.76075881     0.21000
N1147       N  0.56008755  0.99927728  0.75023567    -0.33000
C1148       C  0.55327019  0.97945299  0.73763823    -0.10600
C1149       C  0.56764122  0.95974044  0.74379101    -0.29400
N1150       N  0.63595408  0.96436713  0.80149301    -0.46000
C1151       C  0.64360444  0.98425049  0.81349792    -0.05300
C1152       C  0.62830618  0.00373341  0.80852014    -0.22600
H1153       H  0.58815085  0.02549682  0.78326706     0.19200
H1154       H  0.60712791  0.93793349  0.76962958     0.18000
H1155       H  0.56662868  0.94168890  0.73656467     0.14200
H1156       H  0.62975428  0.02201337  0.81499460     0.14100
H1157       H  0.55252806  0.01645583  0.74920934     0.32300
H1158       H  0.64407028  0.94741782  0.80160228     0.35000
C1159       C  0.41877079  0.96604778  0.76648435     0.20600
C1160       C  0.40377041  0.95201059  0.78137533    -0.39200
C1161       C  0.38505440  0.96440111  0.79321960     0.19600
C1162       C  0.38152780  0.98884386  0.79038621     0.22300
C1163       C  0.39659276  0.00290704  0.77566081    -0.39800
C1164       C  0.41533495  0.99056126  0.76390014     0.21000
N1165       N  0.43721090  0.95847443  0.75252752    -0.33000
C1166       C  0.44560794  0.97835989  0.74105512    -0.10600
C1167       C  0.43246918  0.99870281  0.74780258    -0.29400
N1168       N  0.36214362  0.99618510  0.80301030    -0.46000
C1169       C  0.35314560  0.97638777  0.81415306    -0.05300
C1170       C  0.36710049  0.95614438  0.80842882    -0.22600
H1171       H  0.40627062  0.93281224  0.78334257     0.19200
H1172       H  0.39372875  0.02201071  0.77327847     0.18000
H1173       H  0.43465492  0.01688425  0.74119640     0.14200
H1174       H  0.36452631  0.93775613  0.81417375     0.14100
H1175       H  0.44338048  0.94084812  0.75058445     0.32300
H1176       H  0.35526960  0.01374349  0.80395477     0.35000
C1177       C  0.28464235  0.88257197  0.93316845     0.20600
C1178       C  0.27727841  0.90604532  0.92711050    -0.39200
C1179       C  0.28366252  0.91396607  0.90391432     0.19600
C1180       C  0.29618393  0.89943100  0.88801329     0.22300
C1181       C  0.30328982  0.87599902  0.89394531    -0.39800
C1182       C  0.29714456  0.86823993  0.91708359     0.21000
N1183       N  0.28372437  0.87201413  0.95495652    -0.33000
C1184       C  0.29606219  0.85099755  0.95275323    -0.10600
C1185       C  0.30431963  0.84796566  0.92920838    -0.29400
N1186       N  0.30298593  0.91188637  0.86851579    -0.46000
C1187       C  0.29528145  0.93479906  0.87199318    -0.05300
C1188       C  0.28260378  0.93665363  0.89369813    -0.22600
H1189       H  0.26859897  0.91779161  0.94000895     0.19200
H1190       H  0.31425194  0.86517364  0.88197243     0.18000
H1191       H  0.31552572  0.83366140  0.92214734     0.14200
H1192       H  0.27570449  0.95285166  0.90201105     0.14100
H1193       H  0.27677836  0.87954454  0.97071028     0.32300
H1194       H  0.31359403  0.90529856  0.85444434     0.35000
C1195       C  0.32342203  0.88852922  0.06032188     0.20600
C1196       C  0.33707159  0.90007329  0.07805601    -0.39200
C1197       C  0.32516692  0.91824112  0.09066253     0.19600
C1198       C  0.30142679  0.92468841  0.08609201     0.22300
C1199       C  0.28763165  0.91306074  0.06812047    -0.39800
C1200       C  0.29963757  0.89461336  0.05540214     0.21000
N1201       N  0.33070248  0.87015831  0.04662659    -0.33000
C1202       C  0.31149236  0.86399182  0.03268262    -0.10600
C1203       C  0.29170669  0.87903834  0.03754736    -0.29400
N1204       N  0.29440606  0.94229602  0.10127833    -0.46000
C1205       C  0.31391486  0.94687756  0.11557613    -0.05300
C1206       C  0.33337256  0.93215078  0.10924671    -0.22600
H1207       H  0.35558934  0.89499037  0.08201972     0.19200
H1208       H  0.26893706  0.91776062  0.06455568     0.18000
H1209       H  0.27381568  0.87838327  0.02960171     0.14200
H1210       H  0.35125186  0.93132939  0.11716562     0.14100
H1211       H  0.34786681  0.86231386  0.04727120     0.32300
H1212       H  0.27730040  0.95033606  0.10202351     0.35000
C1213       C  0.08894260  0.65416338  0.05899791     0.20600
C1214       C  0.07432493  0.63986888  0.07381458    -0.39200
C1215       C  0.05822364  0.65231340  0.08869778     0.19600
C1216       C  0.05661810  0.67712964  0.08882711     0.22300
C1217       C  0.07123837  0.69150481  0.07382476    -0.39800
C1218       C  0.08750034  0.67900088  0.05888110     0.21000
N1219       N  0.10651614  0.64653159  0.04425793    -0.33000
C1220       C  0.11660874  0.66657363  0.03458523    -0.10600
C1221       C  0.10505766  0.68724933  0.04310674    -0.29400
N1222       N  0.04075879  0.68448942  0.10569888    -0.46000
C1223       C  0.03246605  0.66416491  0.11650017    -0.05300
C1224       C  0.04284679  0.64377208  0.10611937    -0.22600
H1225       H  0.07587677  0.62046784  0.07421963     0.19200
H1226       H  0.07043973  0.71094751  0.07419249     0.18000
H1227       H  0.10949748  0.70578010  0.03908801     0.14200
H1228       H  0.04012507  0.62513551  0.11101423     0.14100
H1229       H  0.11137460  0.62864231  0.04124971     0.32300
H1230       H  0.03669218  0.70227189  0.11019736     0.35000
C1231       C  0.06950649  0.69029397  0.90192680     0.20600
C1232       C  0.07454111  0.69655486  0.92592231    -0.39200
C1233       C  0.09786649  0.69075066  0.93427098     0.19600
C1234       C  0.11485248  0.67966895  0.91971634     0.22300
C1235       C  0.10988152  0.67352610  0.89574334    -0.39800
C1236       C  0.08653792  0.67913355  0.88748469     0.21000
N1237       N  0.04789321  0.69120264  0.89074566    -0.33000
C1238       C  0.05098439  0.68014110  0.86920542    -0.10600
C1239       C  0.07502282  0.67267421  0.86644209    -0.29400
N1240       N  0.13462986  0.67369956  0.93242122    -0.46000
C1241       C  0.13027757  0.68076753  0.95537329    -0.05300
C1242       C  0.10759950  0.69180825  0.95715947    -0.22600
H1243       H  0.06087283  0.70420365  0.93760005     0.19200
H1244       H  0.12278682  0.66382376  0.88475773     0.18000
H1245       H  0.08267928  0.66240006  0.85177402     0.14200
H1246       H  0.09862442  0.69797302  0.97332238     0.14100
H1247       H  0.03158448  0.69719798  0.89820842     0.32300
H1248       H  0.14968767  0.66436841  0.92594401     0.35000
C1249       C  0.20892393  0.59464273  0.98805503     0.20600
C1250       C  0.21856291  0.57547628  0.97474310    -0.39200
C1251       C  0.23416899  0.56010382  0.98730530     0.19600
C1252       C  0.23963567  0.56344105  0.01135386     0.22300
C1253       C  0.23002514  0.58266553  0.02466513    -0.39800
C1254       C  0.21449399  0.59812894  0.01203064     0.21000
N1255       N  0.19392252  0.61188353  0.98008480    -0.33000
C1256       C  0.18982508  0.62662403  0.99914439    -0.10600
C1257       C  0.20243601  0.61853647  0.01937630    -0.29400
N1258       N  0.25544034  0.54670175  0.01892894    -0.46000
C1259       C  0.26020561  0.53276667  0.99949256    -0.05300
C1260       C  0.24724620  0.54055096  0.97944762    -0.22600
H1261       H  0.21444611  0.57289682  0.95590180     0.19200
H1262       H  0.23451425  0.58551808  0.04338360     0.18000
H1263       H  0.20263968  0.62655630  0.03710200     0.14200
H1264       H  0.24781365  0.53326289  0.96141570     0.14100
H1265       H  0.18714002  0.61317709  0.96271153     0.32300
H1266       H  0.26312429  0.54532938  0.03602701     0.35000
C1267       C  0.19626686  0.75128991  0.00941481     0.20600
C1268       C  0.20403915  0.77296958  0.99865701    -0.39200
C1269       C  0.22567034  0.78304061  0.00781427     0.19600
C1270       C  0.23826962  0.77233897  0.02646740     0.22300
C1271       C  0.23037578  0.75103841  0.03735434    -0.39800
C1272       C  0.20914211  0.74089315  0.02804239     0.21000
N1273       N  0.17928505  0.73582125  0.00111026    -0.33000
C1274       C  0.18196709  0.71535241  0.01415175    -0.10600
C1275       C  0.20006923  0.71812797  0.03138745    -0.29400
N1276       N  0.26022325  0.78240189  0.02907985    -0.46000
C1277       C  0.26210554  0.79948553  0.01186255    -0.05300
C1278       C  0.24065601  0.80087479  0.99851312    -0.22600
H1279       H  0.19511521  0.78028462  0.98297216     0.19200
H1280       H  0.24126631  0.74180528  0.05062728     0.18000
H1281       H  0.20748519  0.70434336  0.04296348     0.14200
H1282       H  0.23770719  0.81120357  0.98230371     0.14100
H1283       H  0.16852297  0.73801669  0.98583284     0.32300
H1284       H  0.27405169  0.77636406  0.04037157     0.35000
C1285       C  0.30068410  0.06271979  0.10991480     0.20600
C1286       C  0.30692035  0.08652811  0.10438338    -0.39200
C1287       C  0.30091171  0.09424509  0.08120521     0.19600
C1288       C  0.28941289  0.07945230  0.06475743     0.22300
C1289       C  0.28307410  0.05557159  0.07033832    -0.39800
C1290       C  0.28919222  0.04777993  0.09357979     0.21000
N1291       N  0.30686580  0.05053892  0.12975670    -0.33000
C1292       C  0.29959090  0.02750991  0.12608115    -0.10600
C1293       C  0.28808567  0.02516243  0.10383141    -0.29400
N1294       N  0.28787318  0.09037383  0.04324431    -0.46000
C1295       C  0.29877442  0.11213988  0.04594181    -0.05300
C1296       C  0.30686129  0.11523398  0.06952038    -0.22600
H1297       H  0.31685465  0.09783161  0.11681711     0.19200
H1298       H  0.27503002  0.04361738  0.05719783     0.18000
H1299       H  0.28161468  0.00879268  0.09545218     0.14200
H1300       H  0.31700506  0.13021153  0.07686200     0.14100
H1301       H  0.31649040  0.05739674  0.14440000     0.32300
H1302       H  0.28135558  0.08274299  0.02735119     0.35000
C1303       C  0.30056064  0.03891551  0.91357275     0.20600
C1304       C  0.28650024  0.05196567  0.93026998    -0.39200
C1305       C  0.29902819  0.06971426  0.94353490     0.19600
C1306       C  0.32353637  0.07398197  0.94026007     0.22300
C1307       C  0.33745096  0.06104543  0.92372956    -0.39800
C1308       C  0.32503628  0.04346307  0.91063493     0.21000
N1309       N  0.29319680  0.02155040  0.89821300    -0.33000
C1310       C  0.31323029  0.01517840  0.88541994    -0.10600
C1311       C  0.33336602  0.02851494  0.89293319    -0.29400
N1312       N  0.33122067  0.09207337  0.95422131    -0.46000
C1313       C  0.31154797  0.09980337  0.96661378    -0.05300
C1314       C  0.29106892  0.08610014  0.96056259    -0.22600
H1315       H  0.26726411  0.04876174  0.93255596     0.19200
H1316       H  0.35656555  0.06465550  0.92101048     0.18000
H1317       H  0.35177273  0.02784580  0.88626251     0.14200
H1318       H  0.27272350  0.08823609  0.96711894     0.14100
H1319       H  0.27555564  0.01492198  0.89625226     0.32300
H1320       H  0.34896803  0.09873487  0.95495634     0.35000
C1321       C  0.10836117  0.28247633  0.08119574     0.20600
C1322       C  0.10286487  0.28794398  0.10514859    -0.39200
C1323       C  0.07962973  0.28134956  0.11292344     0.19600
C1324       C  0.06295498  0.27018255  0.09803941     0.22300
C1325       C  0.06852994  0.26458549  0.07397361    -0.39800
C1326       C  0.09194359  0.27112265  0.06616438     0.21000
N1327       N  0.12851284  0.28871159  0.06917484    -0.33000
C1328       C  0.12511268  0.28134726  0.04619037    -0.10600
C1329       C  0.10255001  0.27006091  0.04364461    -0.29400
N1330       N  0.04128422  0.26821475  0.10914161    -0.46000
C1331       C  0.04418348  0.27856163  0.13106964    -0.05300
C1332       C  0.06802833  0.28653071  0.13412391    -0.22600
H1333       H  0.11541105  0.29760351  0.11661147     0.19200
H1334       H  0.05531908  0.25661725  0.06197158     0.18000
H1335       H  0.09436205  0.26340872  0.02726021     0.14200
H1336       H  0.07552876  0.29635338  0.14919069     0.14100
H1337       H  0.14334553  0.29808930  0.07615041     0.32300
H1338       H  0.02511025  0.26197403  0.10156906     0.35000
C1339       C  0.08617436  0.30441515  0.94286664     0.20600
C1340       C  0.07130796  0.31834206  0.92811352    -0.39200
C1341       C  0.05529744  0.30559794  0.91341353     0.19600
C1342       C  0.05386536  0.28076957  0.91333990     0.22300
C1343       C  0.06870942  0.26667623  0.92841897    -0.39800
C1344       C  0.08499752  0.27955460  0.94321022     0.21000
N1345       N  0.10378418  0.31254767  0.95731643    -0.33000
C1346       C  0.11424356  0.29286877  0.96713705    -0.10600
C1347       C  0.10283362  0.27184129  0.95897331    -0.29400
N1348       N  0.03798673  0.27324572  0.89644770    -0.46000
C1349       C  0.02963717  0.29355064  0.88565826    -0.05300
C1350       C  0.03990826  0.31397915  0.89607073    -0.22600
H1351       H  0.07266385  0.33775971  0.92756070     0.19200
H1352       H  0.06809926  0.24722048  0.92818097     0.18000
H1353       H  0.10749040  0.25344663  0.96326503     0.14200
H1354       H  0.03707191  0.33260952  0.89127602     0.14100
H1355       H  0.10840929  0.33054988  0.96010376     0.32300
H1356       H  0.03389590  0.25544696  0.89192250     0.35000
C1357       C  0.21180394  0.36190403  0.99124063     0.20600
C1358       C  0.22680584  0.37649028  0.97692845    -0.39200
C1359       C  0.23931524  0.39491026  0.98900719     0.19600
C1360       C  0.23729332  0.39843029  0.01354190     0.22300
C1361       C  0.22213652  0.38390282  0.02785685    -0.39800
C1362       C  0.20940426  0.36560786  0.01568864     0.21000
N1363       N  0.19828999  0.34303186  0.98408983    -0.33000
C1364       C  0.18685151  0.33463688  0.00401421    -0.10600
C1365       C  0.19344576  0.34838431  0.02413267    -0.29400
N1366       N  0.25151811  0.41685804  0.02069095    -0.46000
C1367       C  0.26251481  0.42523609  0.00049122    -0.05300
C1368       C  0.25527481  0.41199522  0.98041390    -0.22600
H1369       H  0.22867036  0.37366086  0.95777414     0.19200
H1370       H  0.22042611  0.38658734  0.04704727     0.18000
H1371       H  0.18791449  0.34599569  0.04261014     0.14200
H1372       H  0.26116830  0.41436465  0.96201269     0.14100
H1373       H  0.19696466  0.33615560  0.96666384     0.32300
H1374       H  0.25362951  0.42330987  0.03820313     0.35000
C1375       C  0.19606219  0.21120947  0.99706016     0.20600
C1376       C  0.20556582  0.19071933  0.00852317    -0.39200
C1377       C  0.22574031  0.17999472  0.99733600     0.19600
C1378       C  0.23563407  0.18912169  0.97634753     0.22300
C1379       C  0.22613706  0.20944425  0.96490224    -0.39800
C1380       C  0.20611542  0.22011887  0.97606078     0.21000
N1381       N  0.17957787  0.22675291  0.00592174    -0.33000
C1382       C  0.17958497  0.24578319  0.99067368    -0.10600
C1383       C  0.19568230  0.24211066  0.97173360    -0.29400
N1384       N  0.25696149  0.17863004  0.97153021    -0.46000
C1385       C  0.26096265  0.16280288  0.98956355    -0.05300
C1386       C  0.24167468  0.16277339  0.00582412    -0.22600
H1387       H  0.19887788  0.18463947  0.02577483     0.19200
H1388       H  0.23489338  0.21747624  0.94943863     0.18000
H1389       H  0.20087119  0.25494385  0.95803175     0.14200
H1390       H  0.24100333  0.15383958  0.02308641     0.14100
H1391       H  0.17079263  0.22565999  0.02252245     0.32300
H1392       H  0.26925067  0.18369945  0.95814369     0.35000
C1393       C  0.42616285  0.37575684  0.98295821     0.20600
C1394       C  0.41000426  0.38950894  0.96916756    -0.39200
C1395       C  0.39556204  0.40576980  0.98208923     0.19600
C1396       C  0.39728584  0.40827902  0.00679019     0.22300
C1397       C  0.41362253  0.39475547  0.02050241    -0.39800
C1398       C  0.42782956  0.37831933  0.00765172     0.21000
N1399       N  0.44083474  0.35808710  0.97523622    -0.33000
C1400       C  0.45173602  0.34926353  0.99520520    -0.10600
C1401       C  0.44418112  0.36151346  0.01573362    -0.29400
N1402       N  0.38077650  0.42399282  0.01498458    -0.46000
C1403       C  0.36836954  0.43150527  0.99539596    -0.05300
C1404       C  0.37716802  0.42068494  0.97449979    -0.22600
H1405       H  0.40829908  0.38721768  0.94992566     0.19200
H1406       H  0.41466193  0.39638443  0.03985582     0.18000
H1407       H  0.44956504  0.35823203  0.03413934     0.14200
H1408       H  0.37060452  0.42299536  0.95632162     0.14100
H1409       H  0.44289707  0.35205566  0.95757563     0.32300
H1410       H  0.37787451  0.42900610  0.03284836     0.35000
C1411       C  0.41194020  0.22536690  0.98676872     0.20600
C1412       C  0.39317592  0.21410261  0.97388577    -0.39200
C1413       C  0.37725884  0.19984316  0.98754183     0.19600
C1414       C  0.37972638  0.19712195  0.01212297     0.22300
C1415       C  0.39820480  0.20872601  0.02505437    -0.39800
C1416       C  0.41422616  0.22281912  0.01140357     0.21000
N1417       N  0.42981429  0.23935379  0.97796160    -0.33000
C1418       C  0.44349990  0.24581164  0.99717961    -0.10600
C1419       C  0.43429987  0.23586258  0.01832350    -0.29400
N1420       N  0.36298414  0.18177423  0.02077595    -0.46000
C1421       C  0.34972140  0.17451831  0.00151378    -0.05300
C1422       C  0.35796872  0.18571627  0.98054937    -0.22600
H1423       H  0.39137123  0.21592693  0.95460825     0.19200
H1424       H  0.40025138  0.20656080  0.04427247     0.18000
H1425       H  0.44132491  0.23797555  0.03636098     0.14200
H1426       H  0.35104092  0.18333946  0.96250759     0.14100
H1427       H  0.43239303  0.24438623  0.96005941     0.32300
H1428       H  0.36100487  0.17671048  0.03870934     0.35000
C1429       C  0.88688486  0.27951052  0.92489693     0.20600
C1430       C  0.89173723  0.28440953  0.90068983    -0.39200
C1431       C  0.91550802  0.28003928  0.89306482     0.19600
C1432       C  0.93321398  0.27129552  0.90831897     0.22300
C1433       C  0.92836222  0.26644380  0.93271271    -0.39800
C1434       C  0.90444376  0.27089069  0.94041422     0.21000
N1435       N  0.86642330  0.28469787  0.93679607    -0.33000
C1436       C  0.87083335  0.27972533  0.96020732    -0.10600
C1437       C  0.89426697  0.27062726  0.96318817    -0.29400
N1438       N  0.95482843  0.27062406  0.89701384    -0.46000
C1439       C  0.95085213  0.27932709  0.87455818    -0.05300
C1440       C  0.92645805  0.28521746  0.87146980    -0.22600
H1441       H  0.87823506  0.29215579  0.88890932     0.19200
H1442       H  0.94239554  0.26063321  0.94498645     0.18000
H1443       H  0.90331036  0.26646352  0.97992336     0.14200
H1444       H  0.91807230  0.29347518  0.85596356     0.14100
H1445       H  0.85082207  0.29242717  0.92952233     0.32300
H1446       H  0.97154658  0.26612866  0.90464843     0.35000
C1447       C  0.90868995  0.28205080  0.06183156     0.20600
C1448       C  0.93087926  0.27178208  0.06906723    -0.39200
C1449       C  0.93983011  0.27944156  0.09151825     0.19600
C1450       C  0.92741483  0.29591263  0.10549933     0.22300
C1451       C  0.90540359  0.30611995  0.09831447    -0.39800
C1452       C  0.89665770  0.29867643  0.07594902     0.21000
N1453       N  0.89656725  0.27838548  0.04112566    -0.33000
C1454       C  0.87690600  0.29304024  0.04206244    -0.10600
C1455       C  0.87640018  0.30590877  0.06358050    -0.29400
N1456       N  0.93985970  0.30115246  0.12545501    -0.46000
C1457       C  0.96066603  0.28824295  0.12436170    -0.05300
C1458       C  0.96122124  0.27415174  0.10352702    -0.22600
H1459       H  0.94062380  0.25913320  0.05788692     0.19200
H1460       H  0.89602666  0.31933152  0.10916085     0.18000
H1461       H  0.86301210  0.31884698  0.06946215     0.14200
H1462       H  0.97568046  0.26248222  0.09749632     0.14100
H1463       H  0.90167244  0.26705401  0.02703765     0.32300
H1464       H  0.93444518  0.31313043  0.13887001     0.35000
C1465       C  0.70047892  0.07001756  0.05987294     0.20600
C1466       C  0.71489275  0.05705501  0.07628688    -0.39200
C1467       C  0.70230947  0.04085609  0.09131080     0.19600
C1468       C  0.67739541  0.03799083  0.08993520     0.22300
C1469       C  0.66316269  0.05065116  0.07351168    -0.39800
C1470       C  0.67561821  0.06674800  0.05871294     0.21000
N1471       N  0.70747855  0.08765143  0.04470505    -0.33000
C1472       C  0.68676853  0.09571936  0.03423752    -0.10600
C1473       C  0.66667000  0.08285783  0.04239326    -0.29400
N1474       N  0.66938940  0.02274075  0.10676762    -0.46000
C1475       C  0.68921998  0.01558665  0.11915176    -0.05300
C1476       C  0.71024058  0.02630435  0.10991871    -0.22600
H1477       H  0.73427903  0.05983411  0.07770110     0.19200
H1478       H  0.64363133  0.04867717  0.07284625     0.18000
H1479       H  0.64782898  0.08540777  0.03759603     0.14200
H1480       H  0.72862195  0.02437026  0.11644346     0.14100
H1481       H  0.72499446  0.09449904  0.04247392     0.32300
H1482       H  0.65138160  0.01760071  0.10963490     0.35000
C1483       C  0.71136243  0.04517218  0.90413148     0.20600
C1484       C  0.71657316  0.05056155  0.92834157    -0.39200
C1485       C  0.71130745  0.07419182  0.93581705     0.19600
C1486       C  0.70164159  0.09105795  0.92027286     0.22300
C1487       C  0.69669195  0.08576306  0.89614405    -0.39800
C1488       C  0.70179725  0.06223026  0.88875148     0.21000
N1489       N  0.71154925  0.02338671  0.89348132    -0.33000
C1490       C  0.70157540  0.02655170  0.87139117    -0.10600
C1491       C  0.69568836  0.05067042  0.86773448    -0.29400
N1492       N  0.69537800  0.11112023  0.93215054    -0.46000
C1493       C  0.70091359  0.10717410  0.95553699    -0.05300
C1494       C  0.71126691  0.08442983  0.95851263    -0.22600
H1495       H  0.72289490  0.03699047  0.94077081     0.19200
H1496       H  0.68801432  0.09861377  0.88436589     0.18000
H1497       H  0.68638664  0.05842005  0.85248420     0.14200
H1498       H  0.71605781  0.07576878  0.97525697     0.14100
H1499       H  0.71617045  0.00702328  0.90155086     0.32300
H1500       H  0.68665746  0.12610078  0.92490355     0.35000
C1501       C  0.61163312  0.18535689  0.98475040     0.20600
C1502       C  0.59336948  0.19619320  0.97088082    -0.39200
C1503       C  0.57848218  0.21267797  0.98305747     0.19600
C1504       C  0.58154322  0.21786536  0.00720045     0.22300
C1505       C  0.59985435  0.20716909  0.02099500    -0.39800
C1506       C  0.61470459  0.19074812  0.00882499     0.21000
N1507       N  0.62863906  0.16970594  0.97728326    -0.33000
C1508       C  0.64277128  0.16520400  0.99676487    -0.10600
C1509       C  0.63446109  0.17797652  0.01675251    -0.29400
N1510       N  0.56542610  0.23440985  0.01449832    -0.46000
C1511       C  0.55206118  0.23999307  0.99485577    -0.05300
C1512       C  0.55965694  0.22680452  0.97486193    -0.22600
H1513       H  0.59111870  0.19231147  0.95195145     0.19200
H1514       H  0.60252751  0.21153143  0.03976724     0.18000
H1515       H  0.64232737  0.17831696  0.03456662     0.14200
H1516       H  0.55260796  0.22770872  0.95673896     0.14100
H1517       H  0.63066619  0.16318219  0.95979428     0.32300
H1518       H  0.56399358  0.24187739  0.03166404     0.35000
C1519       C  0.76611122  0.18152977  0.00545185     0.20600
C1520       C  0.78726395  0.19093827  0.99476609    -0.39200
C1521       C  0.79684173  0.21186486  0.00544670     0.19600
C1522       C  0.78589965  0.22269325  0.02505934     0.22300
C1523       C  0.76489981  0.21331287  0.03572933    -0.39800
C1524       C  0.75552190  0.19238360  0.02522948     0.21000
N1525       N  0.75177643  0.16373704  0.99700621    -0.33000
C1526       C  0.73188898  0.16356416  0.01138807    -0.10600
C1527       C  0.73375971  0.18101883  0.02928126    -0.29400
N1528       N  0.79616008  0.24409244  0.02971328    -0.46000
C1529       C  0.81384477  0.24704051  0.01306347    -0.05300
C1530       C  0.81509877  0.22717715  0.99777741    -0.22600
H1531       H  0.79491577  0.18332020  0.97855354     0.19200
H1532       H  0.75568633  0.22247297  0.05026569     0.18000
H1533       H  0.71994500  0.18620387  0.04210088     0.14200
H1534       H  0.82599628  0.22543831  0.98168891     0.14100
H1535       H  0.75424341  0.15393782  0.98118185     0.32300
H1536       H  0.79026708  0.25676806  0.04226640     0.35000
C1537       C  0.61117227  0.40283856  0.00514792     0.20600
C1538       C  0.59897719  0.38553449  0.01904643    -0.39200
C1539       C  0.58292264  0.37045760  0.00650153     0.19600
C1540       C  0.57932811  0.37241824  0.98196886     0.22300
C1541       C  0.59156539  0.38971929  0.96805986    -0.39800
C1542       C  0.60765931  0.40481251  0.98060790     0.21000
N1543       N  0.62744799  0.41915997  0.01280905    -0.33000
C1544       C  0.63457011  0.43156766  0.99303147    -0.10600
C1545       C  0.62256898  0.42315384  0.97256625    -0.29400
N1546       N  0.56272852  0.35631766  0.97442326    -0.46000
C1547       C  0.55557090  0.34413454  0.99431658    -0.05300
C1548       C  0.56785014  0.35239232  0.01466345    -0.22600
H1549       H  0.60170676  0.38400065  0.03824310     0.19200
H1550       H  0.58872097  0.39134024  0.94889008     0.18000
H1551       H  0.62464532  0.42943841  0.95427874     0.14200
H1552       H  0.56567406  0.34632173  0.03301678     0.14100
H1553       H  0.63366197  0.42143995  0.03039862     0.32300
H1554       H  0.55622781  0.35415354  0.95692698     0.35000
C1555       C  0.75953064  0.39841138  0.98515673     0.20600
C1556       C  0.77453644  0.38309511  0.97166975    -0.39200
C1557       C  0.78677105  0.36530433  0.98481770     0.19600
C1558       C  0.78383763  0.36269922  0.00936018     0.22300
C1559       C  0.76878345  0.37789902  0.02279723    -0.39800
C1560       C  0.75694818  0.39594118  0.00977637     0.21000
N1561       N  0.74663655  0.41727980  0.97715521    -0.33000
C1562       C  0.73607399  0.42702963  0.99690194    -0.10600
C1563       C  0.74195302  0.41410589  0.01754122    -0.29400
N1564       N  0.79726632  0.34440541  0.01763834    -0.46000
C1565       C  0.80919467  0.33532530  0.99837104    -0.05300
C1566       C  0.80301120  0.34795322  0.97747586    -0.22600
H1567       H  0.77681260  0.38511846  0.95245719     0.19200
H1568       H  0.76673118  0.37603950  0.04204968     0.18000
H1569       H  0.73611931  0.41760285  0.03578392     0.14200
H1570       H  0.80899769  0.34474666  0.95925695     0.14100
H1571       H  0.74530637  0.42329751  0.95942939     0.32300
H1572       H  0.79824568  0.33835926  0.03537272     0.35000
C1573       C  0.67839639  0.88920291  0.93930433     0.20600
C1574       C  0.66374579  0.90356763  0.92482246    -0.39200
C1575       C  0.67591961  0.92015624  0.91042312     0.19600
C1576       C  0.70089331  0.92245134  0.91022338     0.22300
C1577       C  0.71574549  0.90797397  0.92495906    -0.39800
C1578       C  0.70341540  0.89121563  0.93962534     0.21000
N1579       N  0.67076437  0.87201062  0.95426012    -0.33000
C1580       C  0.69090056  0.86267812  0.96452506    -0.10600
C1581       C  0.71177795  0.87427219  0.95593799    -0.29400
N1582       N  0.70773569  0.93910104  0.89390309    -0.46000
C1583       C  0.68685064  0.94710590  0.88365439    -0.05300
C1584       C  0.66673287  0.93579508  0.89384314    -0.22600
H1585       H  0.64419143  0.90171674  0.92455659     0.19200
H1586       H  0.73532412  0.90947501  0.92484730     0.18000
H1587       H  0.73044068  0.87062338  0.96068938     0.14200
H1588       H  0.64777902  0.93815814  0.88944386     0.14100
H1589       H  0.65269880  0.86731895  0.95742745     0.32300
H1590       H  0.72549628  0.94400286  0.88943645     0.35000
C1591       C  0.71170754  0.91878484  0.09552567     0.20600
C1592       C  0.71700135  0.91345297  0.07127533    -0.39200
C1593       C  0.71214456  0.88963114  0.06388221     0.19600
C1594       C  0.70276132  0.87265674  0.07954464     0.22300
C1595       C  0.69772860  0.87791411  0.10361118    -0.39800
C1596       C  0.70246010  0.90151230  0.11091239     0.21000
N1597       N  0.71191429  0.94049284  0.10641225    -0.33000
C1598       C  0.70233917  0.93687752  0.12865716    -0.10600
C1599       C  0.69658771  0.91272364  0.13209996    -0.29400
N1600       N  0.69722310  0.85222608  0.06796202    -0.46000
C1601       C  0.70297859  0.85590903  0.04460509    -0.05300
C1602       C  0.71269255  0.87898404  0.04133157    -0.22600
H1603       H  0.72327282  0.92707941  0.05884180     0.19200
H1604       H  0.68943419  0.86486724  0.11549780     0.18000
H1605       H  0.68771459  0.90467038  0.14747763     0.14200
H1606       H  0.71768775  0.88741846  0.02451251     0.14100
H1607       H  0.71647705  0.95696221  0.09858338     0.32300
H1608       H  0.68902677  0.83701487  0.07542538     0.35000
C1609       C  0.91750494  0.65909573  0.94340739     0.20600
C1610       C  0.93317051  0.64477866  0.92979712    -0.39200
C1611       C  0.94804064  0.65698178  0.91351043     0.19600
C1612       C  0.94766056  0.68171033  0.91092417     0.22300
C1613       C  0.93191665  0.69621522  0.92475849    -0.39800
C1614       C  0.91678504  0.68386548  0.94115943     0.21000
N1615       N  0.90062599  0.65128146  0.95887620    -0.33000
C1616       C  0.88868172  0.67102644  0.96675172    -0.10600
C1617       C  0.89843468  0.69186728  0.95631042    -0.29400
N1618       N  0.96267809  0.68852379  0.89295815    -0.46000
C1619       C  0.97223316  0.66785731  0.88394614    -0.05300
C1620       C  0.96365327  0.64793640  0.89658703    -0.22600
H1621       H  0.93317930  0.62536320  0.93121701     0.19200
H1622       H  0.93101715  0.71551639  0.92243989     0.18000
H1623       H  0.89222727  0.71017576  0.95860019     0.14200
H1624       H  0.96764333  0.62916468  0.89335342     0.14100
H1625       H  0.89726431  0.63337097  0.96346081     0.32300
H1626       H  0.96531806  0.70596706  0.88647394     0.35000
C1627       C  0.79429271  0.59760883  0.01286441     0.20600
C1628       C  0.78201248  0.57978763  0.02621583    -0.39200
C1629       C  0.76699686  0.56408528  0.01294249     0.19600
C1630       C  0.76453364  0.56597889  0.98827680     0.22300
C1631       C  0.77660734  0.58388095  0.97502203    -0.39800
C1632       C  0.79148815  0.59957136  0.98826560     0.21000
N1633       N  0.80926814  0.61496333  0.02118368    -0.33000
C1634       C  0.81596312  0.62823002  0.00170298    -0.10600
C1635       C  0.80510687  0.61905612  0.98091595    -0.29400
N1636       N  0.74910584  0.54916924  0.97982602    -0.46000
C1637       C  0.74142390  0.53642941  0.99918524    -0.05300
C1638       C  0.75220095  0.54526012  0.02021925    -0.22600
H1639       H  0.78386239  0.57836646  0.04552239     0.19200
H1640       H  0.77441803  0.58559575  0.95577541     0.18000
H1641       H  0.80678758  0.62598643  0.96282183     0.14200
H1642       H  0.74934309  0.53896599  0.03840214     0.14100
H1643       H  0.81402298  0.61773610  0.03911131     0.32300
H1644       H  0.74373459  0.54682384  0.96197854     0.35000
C1645       C  0.93644219  0.69235047  0.09735071     0.20600
C1646       C  0.93160200  0.69765834  0.07310943    -0.39200
C1647       C  0.90764069  0.69359993  0.06542117     0.19600
C1648       C  0.88991807  0.68484879  0.08074640     0.22300
C1649       C  0.89471451  0.67970430  0.10496534    -0.39800
C1650       C  0.91862760  0.68370402  0.11261199     0.21000
N1651       N  0.95824573  0.69191358  0.10822434    -0.33000
C1652       C  0.95438509  0.68253442  0.13042235    -0.10600
C1653       C  0.92978235  0.67752747  0.13387525    -0.29400
N1654       N  0.86954821  0.67960546  0.06854847    -0.46000
C1655       C  0.87425500  0.68488833  0.04521596    -0.05300
C1656       C  0.89772778  0.69406692  0.04261837    -0.22600
H1657       H  0.94575014  0.70327552  0.06082557     0.19200
H1658       H  0.88115917  0.67180609  0.11664068     0.18000
H1659       H  0.92139820  0.66890237  0.14920986     0.14200
H1660       H  0.90703832  0.69830687  0.02601798     0.14100
H1661       H  0.97496401  0.69585993  0.10027839     0.32300
H1662       H  0.85390370  0.67160851  0.07550733     0.35000
C1663       C  0.80418217  0.75148796  0.99531553     0.20600
C1664       C  0.79514213  0.77194880  0.00727029    -0.39200
C1665       C  0.77384365  0.78201790  0.99763056     0.19600
C1666       C  0.76250674  0.77227947  0.97765633     0.22300
C1667       C  0.77154078  0.75202559  0.96571554    -0.39800
C1668       C  0.79267528  0.74202245  0.97531305     0.21000
N1669       N  0.82171432  0.73645989  0.00297117    -0.33000
C1670       C  0.82088708  0.71716746  0.98803454    -0.10600
C1671       C  0.80326229  0.72023071  0.97037974    -0.29400
N1672       N  0.74085659  0.78257708  0.97406501    -0.46000
C1673       C  0.73815144  0.79903709  0.99178114    -0.05300
C1674       C  0.75848785  0.79950256  0.00673867    -0.22600
H1675       H  0.80315565  0.77854877  0.02376247     0.19200
H1676       H  0.76181253  0.74361753  0.95103922     0.18000
H1677       H  0.79724454  0.70708651  0.95730391     0.14200
H1678       H  0.76054843  0.80933175  0.02340939     0.14100
H1679       H  0.83174462  0.73798056  0.01881803     0.32300
H1680       H  0.72783302  0.77740680  0.96144094     0.35000
C1681       C  0.61000611  0.56196663  0.00673387     0.20600
C1682       C  0.59414308  0.57541827  0.02110965    -0.39200
C1683       C  0.57962659  0.59205395  0.00891091     0.19600
C1684       C  0.58080001  0.59502853  0.98424438     0.22300
C1685       C  0.59671715  0.58157563  0.96982697    -0.39800
C1686       C  0.61126180  0.56490546  0.98206118     0.21000
N1687       N  0.62558239  0.54500366  0.01408981    -0.33000
C1688       C  0.63688733  0.53701498  0.99401298    -0.10600
C1689       C  0.62843621  0.54896621  0.97361215    -0.29400
N1690       N  0.56486010  0.61175680  0.97700144    -0.46000
C1691       C  0.55347325  0.61946962  0.99719382    -0.05300
C1692       C  0.56225856  0.60765312  0.01747948    -0.22600
H1693       H  0.59312914  0.57303672  0.04038455     0.19200
H1694       H  0.59762738  0.58385087  0.95053262     0.18000
H1695       H  0.63408046  0.54634555  0.95516464     0.14200
H1696       H  0.55654695  0.60998990  0.03594283     0.14100
H1697       H  0.62829765  0.53915221  0.03171461     0.32300
H1698       H  0.56185026  0.61751756  0.95938997     0.35000
C1699       C  0.39128669  0.56001217  0.98423304     0.20600
C1700       C  0.40733689  0.57389930  0.97029396    -0.39200
C1701       C  0.42192026  0.59030552  0.98303594     0.19600
C1702       C  0.42071467  0.59259495  0.00777530     0.22300
C1703       C  0.40475323  0.57866425  0.02170864    -0.39800
C1704       C  0.39012383  0.56235794  0.00896877     0.21000
N1705       N  0.37544558  0.54321406  0.97649105    -0.33000
C1706       C  0.36419733  0.53476459  0.99649181    -0.10600
C1707       C  0.37288124  0.54631249  0.01704941    -0.29400
N1708       N  0.43632669  0.60952386  0.01557000    -0.46000
C1709       C  0.44753629  0.61819095  0.99565253    -0.05300
C1710       C  0.43903251  0.60660925  0.97501864    -0.22600
H1711       H  0.40832823  0.57214549  0.95094948     0.19200
H1712       H  0.40373675  0.58043885  0.04105230     0.18000
H1713       H  0.36736451  0.54328507  0.03547137     0.14200
H1714       H  0.44461267  0.60972474  0.95663294     0.14100
H1715       H  0.37263147  0.53769596  0.95877320     0.32300
H1716       H  0.43909406  0.61492879  0.03333917     0.35000
C1717       C  0.38234170  0.77136002  0.98373205     0.20600
C1718       C  0.40047266  0.76024537  0.96989962    -0.39200
C1719       C  0.41746632  0.74658143  0.98276256     0.19600
C1720       C  0.41653646  0.74431710  0.00751495     0.22300
C1721       C  0.39834728  0.75531837  0.02130634    -0.39800
C1722       C  0.38126242  0.76879820  0.00842015     0.21000
N1723       N  0.36408321  0.78524719  0.97580778    -0.33000
C1724       C  0.35117060  0.79162670  0.99562331    -0.10600
C1725       C  0.36129555  0.78141289  0.01624903    -0.29400
N1726       N  0.43425217  0.72976811  0.01540685    -0.46000
C1727       C  0.44642741  0.72246669  0.99554065    -0.05300
C1728       C  0.43657847  0.73269712  0.97482118    -0.22600
H1729       H  0.40114221  0.76190703  0.95053365     0.19200
H1730       H  0.39740372  0.75329393  0.04062585     0.18000
H1731       H  0.35504689  0.78335250  0.03458788     0.14200
H1732       H  0.44216208  0.72976479  0.95640317     0.14100
H1733       H  0.36077844  0.78975247  0.95790753     0.32300
H1734       H  0.43736739  0.72450095  0.03314575     0.35000
C1735       C  0.58200949  0.74643891  0.01205270     0.20600
C1736       C  0.59705360  0.76055523  0.02686553    -0.39200
C1737       C  0.61623626  0.77251970  0.01522322     0.19600
C1738       C  0.62021930  0.77028270  0.99079327     0.22300
C1739       C  0.60508643  0.75638313  0.97596757    -0.39800
C1740       C  0.58580887  0.74463856  0.98753563     0.21000
N1741       N  0.56300924  0.73276428  0.01877357    -0.33000
C1742       C  0.55459218  0.72227610  0.99837257    -0.10600
C1743       C  0.56830268  0.72935584  0.97850114    -0.29400
N1744       N  0.63995001  0.78280748  0.98415171    -0.46000
C1745       C  0.64855942  0.79356985  0.00432473    -0.05300
C1746       C  0.63416707  0.78748444  0.02417409    -0.22600
H1747       H  0.59414345  0.76197310  0.04604802     0.19200
H1748       H  0.60822929  0.75467081  0.95684324     0.18000
H1749       H  0.56618169  0.72355167  0.96005147     0.14200
H1750       H  0.63654871  0.79286358  0.04269744     0.14100
H1751       H  0.55641398  0.73040732  0.03621651     0.32300
H1752       H  0.64712318  0.78409814  0.96681584     0.35000
loop_ 
_geom_bond_atom_site_label_1 
_geom_bond_atom_site_label_2 
_geom_bond_distance 
_geom_bond_site_symmetry_2 
_ccdc_geom_bond_type 
O1           Cu9   2.011       .  S
O1           C11   1.277       .  A
O2           Cu9   2.004       .  S
O2           C12   1.276       .  A
O3           Cu9   2.022       .  S
O3           C13   1.279       .  A
O4           Cu9   2.018       .  S
O4           C14   1.279       .  A
O5          Cu10   2.017       .  S
O5           C14   1.278   1_554  A
O6          Cu10   2.017       .  S
O6           C13   1.278   1_554  A
O7          Cu10   2.019       .  S
O7           C12   1.279   1_554  A
O8          Cu10   2.016       .  S
O8           C11   1.279   1_554  A
Cu9         Cu10   2.374   1_556  S
C11        C1727   1.474       .  S
C12        C1691   1.472       .  S
C13        C1709   1.478       .  S
C14        C1742   1.476       .  S
C15          C16   1.535   1_554  S
C15          C21   1.530   1_554  S
C15          C19   1.540       .  S
C15        C1634   1.526       .  S
C16          H23   1.085       .  S
C16          C17   1.370       .  D
C17          C18   1.543   1_556  S
C17        C1616   1.487       .  S
C18          C22   1.542   1_554  S
C18          C20   1.543       .  S
C18          H24   1.110   1_554  S
C19          H25   1.083       .  S
C19          C20   1.371       .  D
C20        C1655   1.483       .  S
C21          H26   1.087       .  S
C21          C22   1.365       .  D
C22        C1670   1.478       .  S
C27          C28   1.538       .  S
C27          C33   1.527   1_554  S
C27          C31   1.529   1_554  S
C27        C1745   1.517       .  S
C28          H35   1.084       .  S
C28          C29   1.372       .  D
C29          C30   1.543       .  S
C29        C1601   1.484       .  S
C30          C34   1.544   1_554  S
C30          C32   1.542   1_554  S
C30          H36   1.110   1_554  S
C31          H37   1.085       .  S
C31          C32   1.367       .  D
C32        C1580   1.482       .  S
C33          H38   1.087       .  S
C33          C34   1.364       .  D
C34        C1673   1.475       .  S
O39         Cu47   2.036       .  S
O39          C49   1.281       .  A
O40         Cu47   2.030       .  S
O40          C50   1.280       .  A
O41         Cu47   2.009       .  S
O41          C51   1.277       .  A
O42         Cu47   2.014       .  S
O42          C52   1.278       .  A
O43         Cu48   2.007       .  S
O43          C52   1.278   1_554  A
O44         Cu48   2.008       .  S
O44          C51   1.278   1_554  A
O45         Cu48   2.011       .  S
O45          C50   1.277   1_554  A
O46         Cu48   2.025       .  S
O46          C49   1.279   1_554  A
Cu47        Cu48   2.373   1_556  S
C49        C1637   1.486       .  S
C50        C1544   1.478       .  S
C51        C1688   1.470       .  S
C52        C1562   1.471       .  S
C53          C54   1.538       .  S
C53          C59   1.526   1_556  S
C53          C57   1.531   1_556  S
C53        C1508   1.516       .  S
C54          H61   1.083       .  S
C54          C55   1.371       .  D
C55          C56   1.544   1_556  S
C55        C1493   1.483       .  S
C56          C60   1.545       .  S
C56          C58   1.543       .  S
C56          H62   1.110       .  S
C57          H63   1.086       .  S
C57          C58   1.368       .  D
C58        C1472   1.482       .  S
C59          H64   1.087       .  S
C59          C60   1.362       .  D
C60        C1526   1.477       .  S
C65          C66   1.534       .  S
C65          C71   1.527       .  S
C65          C69   1.535   1_554  S
C65        C1565   1.513   1_554  S
C66          H73   1.086       .  S
C66          C67   1.370       .  D
C67          C68   1.544       .  S
C67        C1454   1.483       .  S
C68          C72   1.544       .  S
C68          C70   1.540   1_554  S
C68          H74   1.110       .  S
C69          H75   1.083       .  S
C69          C70   1.367       .  D
C70        C1436   1.480       .  S
C71          H76   1.087       .  S
C71          C72   1.363       .  D
C72        C1529   1.474       .  S
O77         Cu85   2.008       .  S
O77          C87   1.277       .  A
O78         Cu85   2.017       .  S
O78          C88   1.278       .  A
O79         Cu85   2.023       .  S
O79          C89   1.279       .  A
O80         Cu85   2.025       .  S
O80          C90   1.280       .  A
O81         Cu86   2.004       .  S
O81          C90   1.277   1_554  A
O82         Cu86   2.008       .  S
O82          C89   1.277   1_554  A
O83         Cu86   2.010       .  S
O83          C88   1.278   1_554  A
O84         Cu86   2.011       .  S
O84          C87   1.278   1_554  A
Cu85        Cu86   2.374   1_556  S
C87        C1400   1.470       .  S
C88        C1511   1.473       .  S
C89        C1418   1.475       .  S
C90        C1547   1.475       .  S
C91          C92   1.535   1_554  S
C91          C97   1.529   1_554  S
C91          C95   1.538       .  S
C91        C1364   1.522       .  S
C92          H99   1.085       .  S
C92          C93   1.372       .  D
C93          C94   1.542   1_556  S
C93        C1346   1.485       .  S
C94          C98   1.542   1_554  S
C94          C96   1.542       .  S
C94         H100   1.110       .  S
C95         H101   1.083       .  S
C95          C96   1.368       .  D
C96        C1328   1.484       .  S
C97         H102   1.087       .  S
C97          C98   1.365       .  D
C98        C1382   1.477       .  S
C103        C104   1.539       .  S
C103        C109   1.525   1_554  S
C103        C107   1.533   1_554  S
C103       C1421   1.516       .  S
C104        H111   1.082       .  S
C104        C105   1.371       .  D
C105        C106   1.543       .  S
C105       C1295   1.484       .  S
C106        C110   1.541   1_554  S
C106        C108   1.544   1_554  S
C106        H112   1.109       .  S
C107        H113   1.084       .  S
C107        C108   1.370       .  D
C108       C1313   1.487       .  S
C109        H114   1.087       .  S
C109        C110   1.361       .  D
C110       C1385   1.473       .  S
C115        C116   1.529   1_556  S
C115        C121   1.529   1_556  S
C115        C119   1.537       .  S
C115       C1256   1.518       .  S
C116        H123   1.085       .  S
C116        C117   1.367       .  D
C117        C118   1.545       .  S
C117       C1220   1.482       .  S
C118        C122   1.544       .  S
C118        C120   1.545   1_554  S
C118        H124   1.110       .  S
C119        H125   1.081       .  S
C119        C120   1.368       .  D
C120       C1241   1.486       .  S
C121        H126   1.086       .  S
C121        C122   1.367       .  D
C122       C1274   1.483       .  S
C127        C128   1.534       .  S
C127        C133   1.527   1_556  S
C127        C131   1.529   1_556  S
C127       C1724   1.519       .  S
C128        H135   1.081       .  S
C128        C129   1.370       .  D
C129        C130   1.546       .  S
C129       C1184   1.488       .  S
C130        C134   1.546   1_556  S
C130        C132   1.548   1_556  S
C130        H136   1.109       .  S
C131        H137   1.083       .  S
C131        C132   1.369       .  D
C132       C1202   1.490       .  S
C133        H138   1.087       .  S
C133        C134   1.366       .  D
C134       C1277   1.481       .  S
O139       Cu147   2.024       .  S
O139        C149   1.280       .  A
O140       Cu147   2.029       .  S
O140        C150   1.280       .  A
O141       Cu147   2.000       .  S
O141        C151   1.276       .  A
O142       Cu147   2.005       .  S
O142        C152   1.277       .  A
O143       Cu148   2.015       .  S
O143        C152   1.278   1_554  A
O144       Cu148   2.017       .  S
O144        C151   1.279   1_554  A
O145       Cu148   2.009       .  S
O145        C150   1.278   1_554  A
O146       Cu148   2.025       .  S
O146        C149   1.278   1_554  A
Cu147      Cu148   2.374   1_556  S
C149       C1367   1.481   1_556  S
C150       C1706   1.478       .  S
C151       C1403   1.470       .  S
C152       C1259   1.471       .  S
O153       Cu161   2.026       .  S
O153        C163   1.280       .  A
O154       Cu161   2.019       .  S
O154        C164   1.279       .  A
O155       Cu161   2.020       .  S
O155        C165   1.279       .  A
O156       Cu161   2.027       .  S
O156        C166   1.279       .  A
O157       Cu162   2.010   1_565  S
O157        C166   1.278       .  A
O158       Cu162   2.020   1_565  S
O158        C165   1.279       .  A
O159       Cu162   2.013   1_565  S
O159        C164   1.277       .  A
O160       Cu162   2.023   1_565  S
O160        C163   1.279       .  A
Cu161      Cu162   2.373   1_565  S
C163       C1148   1.481       .  S
C164       C1130   1.475       .  S
C165       C1115   1.479       .  S
C166       C1166   1.477       .  S
C167        C168   1.545   1_565  S
C167        C173   1.527       .  S
C167        C171   1.529       .  S
C167       C1058   1.527       .  S
C168        H175   1.084       .  S
C168        C169   1.376       .  D
C169        C170   1.547   1_545  S
C169       C1079   1.493       .  S
C170        C174   1.553       .  S
C170        C172   1.552       .  S
C170        H176   1.109       .  S
C171        H177   1.083       .  S
C171        C172   1.369       .  D
C172       C1040   1.498       .  S
C173        H178   1.087       .  S
C173        C174   1.364       .  D
C174       C1094   1.488       .  S
C179        C180   1.528       .  S
C179        C185   1.530       .  S
C179        C183   1.539   1_565  S
C179       C1151   1.521       .  S
C180        H187   1.085       .  S
C180        C181   1.370       .  D
C181        C182   1.545       .  S
C181       C1583   1.487       .  S
C182        C186   1.546       .  S
C182        C184   1.544   1_565  S
C182        H188   1.110       .  S
C183        H189   1.083       .  S
C183        C184   1.372       .  D
C184       C1490   1.487       .  S
C185        H190   1.087       .  S
C185        C186   1.365       .  D
C186       C1097   1.484       .  S
O191       Cu199   2.020       .  S
O191        C201   1.279       .  A
O192       Cu199   2.012       .  S
O192        C202   1.278       .  A
O193       Cu199   2.028       .  S
O193        C203   1.280       .  A
O194       Cu199   2.036       .  S
O194        C204   1.281       .  A
O195       Cu200   2.022       .  S
O195        C204   1.279       .  A
O196       Cu200   2.009       .  S
O196        C203   1.277       .  A
O197       Cu200   2.026       .  S
O197        C202   1.279       .  A
O198       Cu200   2.025       .  S
O198        C201   1.279       .  A
Cu199      Cu200   2.371       .  S
C201       C1022   1.480       .  S
C202       C1112   1.478       .  S
C203       C1004   1.476       .  S
C204       C1061   1.486       .  S
C205        C206   1.535       .  S
C205        C211   1.526       .  S
C205        C209   1.529       .  S
C205        C968   1.515       .  S
C206        H213   1.082       .  S
C206        C207   1.368       .  D
C207        C208   1.548       .  S
C207        C950   1.487       .  S
C208        C212   1.548       .  S
C208        C210   1.547       .  S
C208        H214   1.110       .  S
C209        H215   1.086   1_565  S
C209        C210   1.369       .  D
C210        C935   1.485   1_565  S
C211        H216   1.087       .  S
C211        C212   1.365       .  D
C212        C986   1.481       .  S
C217        C218   1.527       .  S
C217        C223   1.526       .  S
C217        C221   1.534       .  S
C217       C1169   1.517       .  S
C218        H225   1.084   1_565  S
C218        C219   1.370       .  D
C219        C220   1.551       .  S
C219       C1310   1.492   1_565  S
C220        C224   1.546       .  S
C220        C222   1.549       .  S
C220        H226   1.109       .  S
C221        H227   1.081       .  S
C221        C222   1.369       .  D
C222       C1187   1.489       .  S
C223        H228   1.087       .  S
C223        C224   1.366       .  D
C224        C989   1.480       .  S
O229       Cu237   2.017       .  S
O229        C239   1.278   1_545  A
O230       Cu237   2.013       .  S
O230        C240   1.278   1_545  A
O231       Cu237   2.016       .  S
O231        C241   1.278   1_545  A
O232       Cu237   2.011       .  S
O232        C242   1.278   1_545  A
O233       Cu238   2.020       .  S
O233        C242   1.278       .  A
O234       Cu238   2.009       .  S
O234        C241   1.277       .  A
O235       Cu238   2.021       .  S
O235        C240   1.279       .  A
O236       Cu238   2.024       .  S
O236        C239   1.279       .  A
Cu237      Cu238   2.373   1_545  S
C239        C917   1.479       .  S
C240       C1133   1.476       .  S
C241        C896   1.473       .  S
C242        C971   1.475       .  S
C243        C244   1.529       .  S
C243        C249   1.530       .  S
C243        C247   1.535   1_565  S
C243        C860   1.516       .  S
C244        H251   1.084       .  S
C244        C245   1.370       .  D
C245        C246   1.546       .  S
C245       C1205   1.490       .  S
C246        C250   1.542       .  S
C246        C248   1.543   1_565  S
C246        H252   1.109       .  S
C247        H253   1.082       .  S
C247        C248   1.368       .  D
C248       C1292   1.482       .  S
C249        H254   1.087       .  S
C249        C250   1.365       .  D
C250        C878   1.475       .  S
C255        C256   1.538   1_565  S
C255        C261   1.529       .  S
C255        C259   1.531       .  S
C255        C914   1.521       .  S
C256        H263   1.081       .  S
C256        C257   1.369       .  D
C257        C258   1.545   1_545  S
C257        C824   1.486       .  S
C258        C262   1.545       .  S
C258        C260   1.548       .  S
C258        H264   1.109       .  S
C259        H265   1.085       .  S
C259        C260   1.369       .  D
C260        C842   1.490       .  S
C261        H266   1.087       .  S
C261        C262   1.365       .  D
C262        C881   1.476       .  S
C267        C268   1.532       .  S
C267        C273   1.528       .  S
C267        C271   1.538       .  S
C267        C788   1.520       .  S
C268        H275   1.086   1_565  S
C268        C269   1.369       .  D
C269        C270   1.542       .  S
C269       C1475   1.479   1_565  S
C270        C274   1.544       .  S
C270        C272   1.540       .  S
C270        H276   1.110       .  S
C271        H277   1.084       .  S
C271        C272   1.371       .  D
C272       C1598   1.484       .  S
C273        H278   1.087       .  S
C273        C274   1.366       .  D
C274        C806   1.479       .  S
C279        C280   1.537       .  S
C279        C285   1.525       .  S
C279        C283   1.532       .  S
C279       C1025   1.523       .  S
C280        H287   1.082       .  S
C280        C281   1.371       .  D
C281        C282   1.547       .  S
C281        C752   1.488       .  S
C282        C286   1.548       .  S
C282        C284   1.544       .  S
C282        H288   1.110       .  S
C283        H289   1.085   1_565  S
C283        C284   1.371       .  D
C284        C770   1.485   1_565  S
C285        H290   1.087       .  S
C285        C286   1.364       .  D
C286        C809   1.480       .  S
O291       Cu299   2.014       .  S
O291        C301   1.278       .  A
O292       Cu299   2.011       .  S
O292        C302   1.278       .  A
O293       Cu299   2.023       .  S
O293        C303   1.278       .  A
O294       Cu299   2.009       .  S
O294        C304   1.278       .  A
O295       Cu300   2.016       .  S
O295        C304   1.278   1_545  A
O296       Cu300   2.015   1_565  S
O296        C303   1.279       .  A
O297       Cu300   2.016       .  S
O297        C302   1.278   1_545  A
O298       Cu300   2.016   1_565  S
O298        C301   1.278       .  A
Cu299      Cu300   2.374   1_565  S
C301       C1007   1.475       .  S
C302        C863   1.473       .  S
C303        C791   1.478       .  S
C304        C899   1.473       .  S
O305       Cu313   2.017       .  S
O305        C315   1.278       .  A
O306       Cu313   2.009       .  S
O306        C316   1.278       .  A
O307       Cu313   2.019       .  S
O307        C317   1.279       .  A
O308       Cu313   2.022       .  S
O308        C318   1.279       .  A
O309       Cu314   2.017       .  S
O309        C318   1.279   1_455  A
O310       Cu314   2.013       .  S
O310        C317   1.278   1_455  A
O311       Cu314   2.011       .  S
O311        C316   1.277   1_455  A
O312       Cu314   2.010       .  S
O312        C315   1.278   1_455  A
Cu313      Cu314   2.374   1_655  S
C315        C734   1.474       .  S
C316        C698   1.470   1_655  S
C317        C680   1.475       .  S
C318        C719   1.479       .  S
C319        C320   1.532   1_455  S
C319        C325   1.529   1_455  S
C319        C323   1.539       .  S
C319        C644   1.523       .  S
C320        H327   1.084       .  S
C320        C321   1.371       .  D
C321        C322   1.553       .  S
C321       C1043   1.500       .  S
C322        C326   1.549       .  S
C322        C324   1.544   1_655  S
C322        H328   1.109       .  S
C323        H329   1.082       .  S
C323        C324   1.371       .  D
C324        C953   1.488       .  S
C325        H330   1.087       .  S
C325        C326   1.363       .  D
C326        C662   1.483       .  S
C331        C332   1.542       .  S
C331        C337   1.529   1_455  S
C331        C335   1.533   1_455  S
C331        C716   1.524       .  S
C332        H339   1.083       .  S
C332        C333   1.373       .  D
C333        C334   1.544       .  S
C333       C1238   1.487       .  S
C334        C338   1.544   1_455  S
C334        C336   1.544   1_455  S
C334        H340   1.110       .  S
C335        H341   1.086       .  S
C335        C336   1.369       .  D
C336       C1619   1.488       .  S
C337        H342   1.087       .  S
C337        C338   1.364       .  D
C338        C665   1.481       .  S
O343       Cu351   1.996       .  S
O343        C353   1.275       .  A
O344       Cu351   1.991       .  S
O344        C354   1.275   1_455  A
O345       Cu351   2.019       .  S
O345        C355   1.279       .  A
O346       Cu351   2.012       .  S
O346        C356   1.278   1_455  A
O347       Cu352   2.007       .  S
O347        C356   1.276       .  A
O348       Cu352   2.008       .  S
O348        C355   1.277   1_655  A
O349       Cu352   2.015       .  S
O349        C354   1.278       .  A
O350       Cu352   2.010       .  S
O350        C353   1.279   1_655  A
Cu351      Cu352   2.376   1_455  S
C353        C701   1.467       .  S
C354        C629   1.465       .  S
C355        C647   1.474       .  S
C356        C608   1.469       .  S
C357        C358   1.540       .  S
C357        C363   1.527   1_655  S
C357        C361   1.532   1_655  S
C357        C572   1.517       .  S
C358        H365   1.083       .  S
C358        C359   1.371       .  D
C359        C360   1.543   1_655  S
C359       C1652   1.485       .  S
C360        C364   1.542       .  S
C360        C362   1.543       .  S
C360        H366   1.109       .  S
C361        H367   1.085       .  S
C361        C362   1.369       .  D
C362       C1223   1.484       .  S
C363        H368   1.087       .  S
C363        C364   1.363       .  D
C364        C590   1.477       .  S
C369        C370   1.530   1_655  S
C369        C375   1.527   1_655  S
C369        C373   1.534       .  S
C369        C626   1.508       .  S
C370        H377   1.084       .  S
C370        C371   1.369       .  D
C371        C372   1.548       .  S
C371        C845   1.488       .  S
C372        C376   1.545       .  S
C372        C374   1.544   1_455  S
C372        H378   1.109       .  S
C373        H379   1.082       .  S
C373        C374   1.366       .  D
C374        C755   1.484       .  S
C375        H380   1.087       .  S
C375        C376   1.363       .  D
C376        C593   1.475       .  S
O381       Cu389   2.016       .  S
O381        C391   1.278   1_455  A
O382       Cu389   1.998       .  S
O382        C392   1.276   1_455  A
O383       Cu389   2.014       .  S
O383        C393   1.278   1_455  A
O384       Cu389   2.014       .  S
O384        C394   1.278   1_455  A
O385       Cu390   2.019       .  S
O385        C394   1.279       .  A
O386       Cu390   2.015       .  S
O386        C393   1.278       .  A
O387       Cu390   2.010       .  S
O387        C392   1.278       .  A
O388       Cu390   2.014       .  S
O388        C391   1.279       .  A
Cu389      Cu390   2.375   1_455  S
C391        C554   1.475       .  S
C392        C611   1.466       .  S
C393        C536   1.474       .  S
C394        C575   1.476       .  S
C395        C396   1.531   1_655  S
C395        C401   1.529   1_655  S
C395        C399   1.539       .  S
C395        C503   1.520       .  S
C396        H403   1.085       .  S
C396        C397   1.369       .  D
C397        C398   1.545       .  S
C397        C932   1.483       .  S
C398        C402   1.547       .  S
C398        C400   1.543   1_455  S
C398        H404   1.110       .  S
C399        H405   1.083       .  S
C399        C400   1.369       .  D
C400       C1076   1.489       .  S
C401        H406   1.086       .  S
C401        C402   1.367       .  D
C402        C521   1.482       .  S
C407        C408   1.536       .  S
C407        C413   1.524       .  S
C407        C411   1.530   1_655  S
C407        C737   1.514       .  S
C408        H415   1.084       .  S
C408        C409   1.370       .  D
C409        C410   1.545       .  S
C409       C1439   1.484       .  S
C410        C414   1.548   1_655  S
C410        C412   1.544   1_655  S
C410        H416   1.110       .  S
C411        H417   1.085       .  S
C411        C412   1.370       .  D
C412       C1349   1.485       .  S
C413        H418   1.087   1_655  S
C413        C414   1.363   1_655  D
C414        C518   1.480       .  S
C419        C420   1.535   1_455  S
C419        C425   1.528   1_455  S
C419        C423   1.542       .  S
C419        C464   1.519       .  S
C420        H427   1.085       .  S
C420        C421   1.371       .  D
C421        C422   1.542   1_655  S
C421        C773   1.485       .  S
C422        C426   1.540   1_455  S
C422        C424   1.539       .  S
C422        H428   1.110       .  S
C423        H429   1.083       .  S
C423        C424   1.370       .  D
C424        C827   1.483       .  S
C425        H430   1.087       .  S
C425        C426   1.364       .  D
C426        C482   1.475       .  S
C431        C432   1.533       .  S
C431        C437   1.530   1_455  S
C431        C435   1.527   1_455  S
C431        C557   1.517       .  S
C432        H439   1.082       .  S
C432        C433   1.369       .  D
C433        C434   1.546   1_455  S
C433       C1331   1.485       .  S
C434        C438   1.547       .  S
C434        C436   1.547       .  S
C434        H440   1.110       .  S
C435        H441   1.085       .  S
C435        C436   1.366       .  D
C436       C1457   1.484       .  S
C437        H442   1.086       .  S
C437        C438   1.368       .  D
C438        C485   1.481       .  S
O443       Cu451   2.015       .  S
O443        C453   1.278       .  A
O444       Cu451   2.018       .  S
O444        C454   1.279       .  A
O445       Cu451   2.013       .  S
O445        C455   1.278       .  A
O446       Cu451   2.017       .  S
O446        C456   1.278       .  A
O447       Cu452   2.021       .  S
O447        C456   1.279   1_455  A
O448       Cu452   2.016       .  S
O448        C455   1.278   1_455  A
O449       Cu452   2.010       .  S
O449        C454   1.277   1_455  A
O450       Cu452   2.011       .  S
O450        C453   1.278   1_455  A
Cu451      Cu452   2.374   1_655  S
C453        C467   1.474       .  S
C454        C683   1.473       .  S
C455        C539   1.474       .  S
C456        C500   1.478   1_655  S
C457        C462   1.382   1_655  A
C457        C458   1.407       .  A
C457        N463   1.345       .  A
C458        C459   1.405       .  A
C458        H469   1.082       .  S
C459        C468   1.381       .  A
C459        C460   1.384   1_655  A
C460        C461   1.403       .  A
C460        N466   1.343       .  A
C461        C462   1.403       .  A
C461        H470   1.082       .  S
C462        C465   1.378       .  A
N463        C464   1.359   1_655  A
N463        H473   1.044       .  S
C464        C465   1.400       .  A
C465        H471   1.081       .  S
N466        C467   1.355   1_455  A
N466        H474   1.045       .  S
C467        C468   1.397       .  A
C468        H472   1.082       .  S
C475        C480   1.385       .  A
C475        C476   1.399       .  A
C475        N481   1.341       .  A
C476        C477   1.399       .  A
C476        H487   1.083       .  S
C477        C486   1.373       .  A
C477        C478   1.384       .  A
C478        C479   1.410   1_655  A
C478        N484   1.350   1_655  A
C479        C480   1.410   1_455  A
C479        H488   1.082       .  S
C480        C483   1.385   1_655  A
N481        C482   1.353       .  A
N481        H491   1.045       .  S
C482        C483   1.397   1_655  A
C483        H489   1.082       .  S
N484        C485   1.358   1_455  A
N484        H492   1.045       .  S
C485        C486   1.393       .  A
C486        H490   1.083       .  S
C493        C498   1.384   1_655  A
C493        C494   1.405       .  A
C493        N499   1.345       .  A
C494        C495   1.404       .  A
C494        H505   1.082       .  S
C495        C504   1.379       .  A
C495        C496   1.382   1_655  A
C496        C497   1.406       .  A
C496        N502   1.345       .  A
C497        C498   1.406       .  A
C497        H506   1.082       .  S
C498        C501   1.382       .  A
N499        C500   1.357   1_655  A
N499        H509   1.045       .  S
C500        C501   1.397       .  A
C501        H507   1.082       .  S
N502        C503   1.359   1_455  A
N502        H510   1.044       .  S
C503        C504   1.401       .  A
C504        H508   1.081       .  S
C511        C516   1.384       .  A
C511        C512   1.402       .  A
C511        N517   1.341       .  A
C512        C513   1.401       .  A
C512        H523   1.083       .  S
C513        C522   1.376       .  A
C513        C514   1.384       .  A
C514        C515   1.410   1_455  A
C514        N520   1.349       .  A
C515        C516   1.409   1_655  A
C515        H524   1.082       .  S
C516        C519   1.387   1_455  A
N517        C518   1.355       .  A
N517        H527   1.046       .  S
C518        C519   1.397   1_455  A
C519        H525   1.082       .  S
N520        C521   1.357       .  A
N520        H528   1.045   1_455  S
C521        C522   1.395       .  A
C522        H526   1.083       .  S
C529        C534   1.384   1_655  A
C529        C530   1.405       .  A
C529        N535   1.345       .  A
C530        C531   1.405       .  A
C530        H541   1.082       .  S
C531        C540   1.380       .  A
C531        C532   1.384   1_655  A
C532        C533   1.403       .  A
C532        N538   1.344       .  A
C533        C534   1.402       .  A
C533        H542   1.082       .  S
C534        C537   1.378       .  A
N535        C536   1.357       .  A
N535        H545   1.045       .  S
C536        C537   1.395   1_655  A
C537        H543   1.082       .  S
N538        C539   1.355   1_455  A
N538        H546   1.045       .  S
C539        C540   1.397       .  A
C540        H544   1.082       .  S
C547        C552   1.384   1_455  A
C547        C548   1.406       .  A
C547        N553   1.346       .  A
C548        C549   1.405       .  A
C548        H559   1.082       .  S
C549        C558   1.380       .  A
C549        C550   1.382   1_455  A
C550        C551   1.403       .  A
C550        N556   1.343       .  A
C551        C552   1.403       .  A
C551        H560   1.082       .  S
C552        C555   1.378       .  A
N553        C554   1.357   1_455  A
N553        H563   1.045       .  S
C554        C555   1.395       .  A
C555        H561   1.082       .  S
N556        C557   1.357   1_655  A
N556        H564   1.045       .  S
C557        C558   1.401       .  A
C558        H562   1.081       .  S
C565        C570   1.383   1_655  A
C565        C566   1.406       .  A
C565        N571   1.346       .  A
C566        C567   1.406       .  A
C566        H577   1.082       .  S
C567        C576   1.382       .  A
C567        C568   1.384   1_655  A
C568        C569   1.403       .  A
C568        N574   1.344       .  A
C569        C570   1.403       .  A
C569        H578   1.082       .  S
C570        C573   1.376       .  A
N571        C572   1.360       .  A
N571        H581   1.043       .  S
C572        C573   1.397   1_655  A
C573        H579   1.082       .  S
N574        C575   1.356   1_455  A
N574        H582   1.045       .  S
C575        C576   1.397       .  A
C576        H580   1.082       .  S
C583        C588   1.385       .  A
C583        C584   1.407   1_455  A
C583        N589   1.347       .  A
C584        C585   1.406   1_655  A
C584        H595   1.082       .  S
C585        C594   1.383   1_455  A
C585        C586   1.384       .  A
C586        C587   1.401       .  A
C586        N592   1.342       .  A
C587        C588   1.401       .  A
C587        H596   1.083       .  S
C588        C591   1.374       .  A
N589        C590   1.356       .  A
N589        H599   1.045   1_455  S
C590        C591   1.395       .  A
C591        H597   1.083       .  S
N592        C593   1.355       .  A
N592        H600   1.044       .  S
C593        C594   1.395   1_455  A
C594        H598   1.082       .  S
C601        C606   1.385   1_655  A
C601        C602   1.404       .  A
C601        N607   1.343       .  A
C602        C603   1.402       .  A
C602        H613   1.082       .  S
C603        C612   1.379       .  A
C603        C604   1.385   1_655  A
C604        C605   1.401       .  A
C604        N610   1.340       .  A
C605        C606   1.399       .  A
C605        H614   1.082       .  S
C606        C609   1.375       .  A
N607        C608   1.356       .  A
N607        H617   1.045       .  S
C608        C609   1.393   1_655  A
C609        H615   1.082       .  S
N610        C611   1.354   1_455  A
N610        H618   1.045       .  S
C611        C612   1.395       .  A
C612        H616   1.082       .  S
C619        C624   1.383   1_455  A
C619        C620   1.400       .  A
C619        N625   1.341       .  A
C620        C621   1.400       .  A
C620        H631   1.082       .  S
C621        C630   1.372       .  A
C621        C622   1.385   1_455  A
C622        C623   1.402       .  A
C622        N628   1.344       .  A
C623        C624   1.402       .  A
C623        H632   1.082       .  S
C624        C627   1.375       .  A
N625        C626   1.355   1_455  A
N625        H635   1.045       .  S
C626        C627   1.399       .  A
C627        H633   1.081       .  S
N628        C629   1.355       .  A
N628        H636   1.044       .  S
C629        C630   1.393   1_655  A
C630        H634   1.083       .  S
C637        C642   1.383   1_455  A
C637        C638   1.407       .  A
C637        N643   1.347       .  A
C638        C639   1.405       .  A
C638        H649   1.082       .  S
C639        C648   1.381       .  A
C639        C640   1.384   1_455  A
C640        C641   1.405       .  A
C640        N646   1.344       .  A
C641        C642   1.404       .  A
C641        H650   1.082       .  S
C642        C645   1.378       .  A
N643        C644   1.361       .  A
N643        H653   1.042       .  S
C644        C645   1.398   1_455  A
C645        H651   1.082       .  S
N646        C647   1.356   1_655  A
N646        H654   1.045       .  S
C647        C648   1.396       .  A
C648        H652   1.082       .  S
C655        C660   1.384       .  A
C655        C656   1.402       .  A
C655        N661   1.343       .  A
C656        C657   1.401       .  A
C656        H667   1.082       .  S
C657        C666   1.376       .  A
C657        C658   1.384       .  A
C658        C659   1.411   1_655  A
C658        N664   1.351   1_655  A
C659        C660   1.411   1_455  A
C659        H668   1.082       .  S
C660        C663   1.388   1_655  A
N661        C662   1.355       .  A
N661        H671   1.045       .  S
C662        C663   1.399   1_655  A
C663        H669   1.082       .  S
N664        C665   1.358   1_455  A
N664        H672   1.045       .  S
C665        C666   1.394       .  A
C666        H670   1.083       .  S
C673        C678   1.384   1_455  A
C673        C674   1.405       .  A
C673        N679   1.344       .  A
C674        C675   1.404       .  A
C674        H685   1.082       .  S
C675        C684   1.379       .  A
C675        C676   1.384   1_455  A
C676        C677   1.404       .  A
C676        N682   1.344       .  A
C677        C678   1.403       .  A
C677        H686   1.082       .  S
C678        C681   1.379       .  A
N679        C680   1.357   1_455  A
N679        H689   1.045       .  S
C680        C681   1.396       .  A
C681        H687   1.082       .  S
N682        C683   1.356       .  A
N682        H690   1.045       .  S
C683        C684   1.396   1_655  A
C684        H688   1.082       .  S
C691        C696   1.384   1_455  A
C691        C692   1.406       .  A
C691        N697   1.345       .  A
C692        C693   1.405       .  A
C692        H703   1.082       .  S
C693        C702   1.380       .  A
C693        C694   1.385   1_455  A
C694        C695   1.399       .  A
C694        N700   1.340       .  A
C695        C696   1.398       .  A
C695        H704   1.082       .  S
C696        C699   1.373       .  A
N697        C698   1.358       .  A
N697        H707   1.045       .  S
C698        C699   1.392   1_455  A
C699        H705   1.082       .  S
N700        C701   1.352   1_655  A
N700        H708   1.045       .  S
C701        C702   1.397       .  A
C702        H706   1.082       .  S
C709        C714   1.383   1_455  A
C709        C710   1.406       .  A
C709        N715   1.347       .  A
C710        C711   1.405       .  A
C710        H721   1.082       .  S
C711        C720   1.380       .  A
C711        C712   1.384   1_455  A
C712        C713   1.407       .  A
C712        N718   1.347       .  A
C713        C714   1.407       .  A
C713        H722   1.082       .  S
C714        C717   1.380       .  A
N715        C716   1.360       .  A
N715        H725   1.043       .  S
C716        C717   1.400   1_455  A
C717        H723   1.082       .  S
N718        C719   1.358       .  A
N718        H726   1.045       .  S
C719        C720   1.396   1_655  A
C720        H724   1.082       .  S
C727        C732   1.384   1_655  A
C727        C728   1.405       .  A
C727        N733   1.345       .  A
C728        C729   1.405       .  A
C728        H739   1.082       .  S
C729        C738   1.380       .  A
C729        C730   1.383   1_655  A
C730        C731   1.403       .  A
C730        N736   1.342       .  A
C731        C732   1.402       .  A
C731        H740   1.082       .  S
C732        C735   1.377       .  A
N733        C734   1.357       .  A
N733        H743   1.045       .  S
C734        C735   1.395   1_655  A
C735        H741   1.082       .  S
N736        C737   1.357   1_455  A
N736        H744   1.045       .  S
C737        C738   1.400       .  A
C738        H742   1.081       .  S
C745        C750   1.383       .  A
C745        C746   1.410       .  A
C745        N751   1.349       .  A
C746        C747   1.409       .  A
C746        H757   1.082       .  S
C747        C756   1.385       .  A
C747        C748   1.384       .  A
C748        C749   1.401       .  A
C748        N754   1.340       .  A
C749        C750   1.400       .  A
C749        H758   1.083       .  S
C750        C753   1.374       .  A
N751        C752   1.359       .  A
N751        H761   1.045       .  S
C752        C753   1.397       .  A
C753        H759   1.082       .  S
N754        C755   1.356       .  A
N754        H762   1.044       .  S
C755        C756   1.398       .  A
C756        H760   1.082       .  S
C763        C768   1.383       .  A
C763        C764   1.412       .  A
C763        N769   1.352       .  A
C764        C765   1.412       .  A
C764        H775   1.082       .  S
C765        C774   1.387       .  A
C765        C766   1.384       .  A
C766        C767   1.397       .  A
C766        N772   1.339       .  A
C767        C768   1.396       .  A
C767        H776   1.083       .  S
C768        C771   1.368       .  A
N769        C770   1.361       .  A
N769        H779   1.044       .  S
C770        C771   1.393       .  A
C771        H777   1.082       .  S
N772        C773   1.354       .  A
N772        H780   1.044       .  S
C773        C774   1.401       .  A
C774        H778   1.082       .  S
C781        C786   1.383       .  A
C781        C782   1.404   1_565  A
C781        N787   1.344       .  A
C782        C783   1.403   1_545  A
C782        H793   1.082       .  S
C783        C792   1.378       .  A
C783        C784   1.384       .  A
C784        C785   1.408       .  A
C784        N790   1.348       .  A
C785        C786   1.408       .  A
C785        H794   1.082       .  S
C786        C789   1.382       .  A
N787        C788   1.357       .  A
N787        H797   1.044   1_565  S
C788        C789   1.402       .  A
C789        H795   1.081       .  S
N790        C791   1.358       .  A
N790        H798   1.044       .  S
C791        C792   1.395       .  A
C792        H796   1.082   1_565  S
C799        C804   1.384   1_565  A
C799        C800   1.411       .  A
C799        N805   1.350       .  A
C800        C801   1.410       .  A
C800        H811   1.082       .  S
C801        C810   1.389       .  A
C801        C802   1.385   1_565  A
C802        C803   1.400       .  A
C802        N808   1.339       .  A
C803        C804   1.398       .  A
C803        H812   1.083       .  S
C804        C807   1.373       .  A
N805        C806   1.358       .  A
N805        H815   1.045       .  S
C806        C807   1.392   1_565  A
C807        H813   1.083       .  S
N808        C809   1.354   1_545  A
N808        H816   1.046       .  S
C809        C810   1.399       .  A
C810        H814   1.082       .  S
C817        C822   1.384       .  A
C817        C818   1.403       .  A
C817        N823   1.342       .  A
C818        C819   1.401       .  A
C818        H829   1.082       .  S
C819        C828   1.378       .  A
C819        C820   1.384       .  A
C820        C821   1.408       .  A
C820        N826   1.345       .  A
C821        C822   1.406       .  A
C821        H830   1.082       .  S
C822        C825   1.385       .  A
N823        C824   1.357       .  A
N823        H833   1.044       .  S
C824        C825   1.398       .  A
C825        H831   1.082       .  S
N826        C827   1.358       .  A
N826        H834   1.043       .  S
C827        C828   1.396       .  A
C828        H832   1.082       .  S
C835        C840   1.382       .  A
C835        C836   1.410       .  A
C835        N841   1.350       .  A
C836        C837   1.410       .  A
C836        H847   1.082       .  S
C837        C846   1.385       .  A
C837        C838   1.383       .  A
C838        C839   1.399       .  A
C838        N844   1.340       .  A
C839        C840   1.399       .  A
C839        H848   1.083       .  S
C840        C843   1.371       .  A
N841        C842   1.360       .  A
N841        H851   1.045       .  S
C842        C843   1.397       .  A
C843        H849   1.081       .  S
N844        C845   1.357       .  A
N844        H852   1.044       .  S
C845        C846   1.400       .  A
C846        H850   1.082       .  S
C853        C858   1.383       .  A
C853        C854   1.403       .  A
C853        N859   1.342       .  A
C854        C855   1.402       .  A
C854        H865   1.082       .  S
C855        C864   1.377       .  A
C855        C856   1.384       .  A
C856        C857   1.406   1_565  A
C856        N862   1.346   1_565  A
C857        C858   1.405   1_545  A
C857        H866   1.082       .  S
C858        C861   1.380   1_565  A
N859        C860   1.356       .  A
N859        H869   1.045       .  S
C860        C861   1.402   1_565  A
C861        H867   1.081       .  S
N862        C863   1.357   1_545  A
N862        H870   1.044       .  S
C863        C864   1.395       .  A
C864        H868   1.082       .  S
C871        C876   1.385       .  A
C871        C872   1.408       .  A
C871        N877   1.347       .  A
C872        C873   1.407       .  A
C872        H883   1.082   1_565  S
C873        C882   1.384       .  A
C873        C874   1.385       .  A
C874        C875   1.402       .  A
C874        N880   1.343       .  A
C875        C876   1.401       .  A
C875        H884   1.083       .  S
C876        C879   1.376       .  A
N877        C878   1.356       .  A
N877        H887   1.045   1_565  S
C878        C879   1.393       .  A
C879        H885   1.083       .  S
N880        C881   1.354       .  A
N880        H888   1.045       .  S
C881        C882   1.396       .  A
C882        H886   1.082   1_565  S
C889        C894   1.384       .  A
C889        C890   1.403       .  A
C889        N895   1.343       .  A
C890        C891   1.402       .  A
C890        H901   1.082       .  S
C891        C900   1.377       .  A
C891        C892   1.384       .  A
C892        C893   1.405   1_565  A
C892        N898   1.345   1_565  A
C893        C894   1.405   1_545  A
C893        H902   1.082       .  S
C894        C897   1.380   1_565  A
N895        C896   1.355       .  A
N895        H905   1.044       .  S
C896        C897   1.397   1_565  A
C897        H903   1.082       .  S
N898        C899   1.357   1_545  A
N898        H906   1.045       .  S
C899        C900   1.395       .  A
C900        H904   1.082       .  S
C907        C912   1.382       .  A
C907        C908   1.406   1_565  A
C907        N913   1.346   1_565  A
C908        C909   1.405   1_545  A
C908        H919   1.082       .  S
C909        C918   1.381   1_565  A
C909        C910   1.384       .  A
C910        C911   1.406       .  A
C910        N916   1.346       .  A
C911        C912   1.405       .  A
C911        H920   1.082       .  S
C912        C915   1.379       .  A
N913        C914   1.361   1_545  A
N913        H923   1.037       .  S
C914        C915   1.399       .  A
C915        H921   1.082       .  S
N916        C917   1.357       .  A
N916        H924   1.045       .  S
C917        C918   1.397   1_565  A
C918        H922   1.082       .  S
C925        C930   1.384       .  A
C925        C926   1.398       .  A
C925        N931   1.339       .  A
C926        C927   1.397       .  A
C926        H937   1.083       .  S
C927        C936   1.370       .  A
C927        C928   1.383       .  A
C928        C929   1.411       .  A
C928        N934   1.350       .  A
C929        C930   1.410       .  A
C929        H938   1.082       .  S
C930        C933   1.386       .  A
N931        C932   1.355       .  A
N931        H941   1.045       .  S
C932        C933   1.400       .  A
C933        H939   1.082       .  S
N934        C935   1.359       .  A
N934        H942   1.045       .  S
C935        C936   1.395       .  A
C936        H940   1.082       .  S
C943        C948   1.383       .  A
C943        C944   1.402       .  A
C943        N949   1.341       .  A
C944        C945   1.401       .  A
C944        H955   1.083       .  S
C945        C954   1.376       .  A
C945        C946   1.383       .  A
C946        C947   1.409       .  A
C946        N952   1.348       .  A
C947        C948   1.408       .  A
C947        H956   1.082       .  S
C948        C951   1.386       .  A
N949        C950   1.357       .  A
N949        H959   1.044       .  S
C950        C951   1.399       .  A
C951        H957   1.082       .  S
N952        C953   1.359       .  A
N952        H960   1.044       .  S
C953        C954   1.397       .  A
C954        H958   1.082       .  S
C961        C966   1.383       .  A
C961        C962   1.403   1_565  A
C961        N967   1.343       .  A
C962        C963   1.403   1_545  A
C962        H973   1.082       .  S
C963        C972   1.377       .  A
C963        C964   1.384       .  A
C964        C965   1.405       .  A
C964        N970   1.346       .  A
C965        C966   1.404       .  A
C965        H974   1.082       .  S
C966        C969   1.378       .  A
N967        C968   1.357       .  A
N967        H977   1.045   1_565  S
C968        C969   1.401       .  A
C969        H975   1.081       .  S
N970        C971   1.357       .  A
N970        H978   1.045       .  S
C971        C972   1.395       .  A
C972        H976   1.082   1_565  S
C979        C984   1.384   1_545  A
C979        C980   1.401       .  A
C979        N985   1.341       .  A
C980        C981   1.400       .  A
C980        H991   1.083       .  S
C981        C990   1.374       .  A
C981        C982   1.384   1_545  A
C982        C983   1.411       .  A
C982        N988   1.350       .  A
C983        C984   1.410       .  A
C983        H992   1.082       .  S
C984        C987   1.388       .  A
N985        C986   1.355   1_545  A
N985        H995   1.046       .  S
C986        C987   1.398       .  A
C987        H993   1.082       .  S
N988        C989   1.358       .  A
N988        H996   1.045       .  S
C989        C990   1.394   1_565  A
C990        H994   1.083       .  S
C997       C1002   1.384       .  A
C997        C998   1.404       .  A
C997       N1003   1.345       .  A
C998        C999   1.403       .  A
C998       H1009   1.082       .  S
C999       C1008   1.379       .  A
C999       C1000   1.384       .  A
C1000      C1001   1.405   1_565  A
C1000      N1006   1.345       .  A
C1001      C1002   1.405   1_545  A
C1001      H1010   1.082       .  S
C1002      C1005   1.379       .  A
N1003      C1004   1.356       .  A
N1003      H1013   1.044       .  S
C1004      C1005   1.397       .  A
C1005      H1011   1.082   1_565  S
N1006      C1007   1.357       .  A
N1006      H1014   1.044   1_565  S
C1007      C1008   1.396       .  A
C1008      H1012   1.082       .  S
C1015      C1020   1.384       .  A
C1015      C1016   1.407       .  A
C1015      N1021   1.347       .  A
C1016      C1017   1.407       .  A
C1016      H1027   1.082   1_565  S
C1017      C1026   1.381       .  A
C1017      C1018   1.383       .  A
C1018      C1019   1.405       .  A
C1018      N1024   1.345       .  A
C1019      C1020   1.404       .  A
C1019      H1028   1.082       .  S
C1020      C1023   1.380       .  A
N1021      C1022   1.358       .  A
N1021      H1031   1.045   1_565  S
C1022      C1023   1.396       .  A
C1023      H1029   1.082       .  S
N1024      C1025   1.360       .  A
N1024      H1032   1.043       .  S
C1025      C1026   1.400       .  A
C1026      H1030   1.082   1_565  S
C1033      C1038   1.382       .  A
C1033      C1034   1.402       .  A
C1033      N1039   1.340       .  A
C1034      C1035   1.400       .  A
C1034      H1045   1.083       .  S
C1035      C1044   1.374       .  A
C1035      C1036   1.381       .  A
C1036      C1037   1.414       .  A
C1036      N1042   1.353       .  A
C1037      C1038   1.414       .  A
C1037      H1046   1.082       .  S
C1038      C1041   1.392       .  A
N1039      C1040   1.359       .  A
N1039      H1049   1.043       .  S
C1040      C1041   1.403       .  A
C1041      H1047   1.082       .  S
N1042      C1043   1.362       .  A
N1042      H1050   1.043       .  S
C1043      C1044   1.400       .  A
C1044      H1048   1.081       .  S
C1051      C1056   1.382       .  A
C1051      C1052   1.410       .  A
C1051      N1057   1.345       .  A
C1052      C1053   1.408       .  A
C1052      H1063   1.082       .  S
C1053      C1062   1.388       .  A
C1053      C1054   1.383       .  A
C1054      C1055   1.409   1_565  A
C1054      N1060   1.346       .  A
C1055      C1056   1.407   1_545  A
C1055      H1064   1.082       .  S
C1056      C1059   1.388   1_565  A
N1057      C1058   1.360       .  A
N1057      H1067   1.045       .  S
C1058      C1059   1.402   1_565  A
C1059      H1065   1.081       .  S
N1060      C1061   1.358       .  A
N1060      H1068   1.044   1_565  S
C1061      C1062   1.400       .  A
C1062      H1066   1.082       .  S
C1069      C1074   1.383       .  A
C1069      C1070   1.411       .  A
C1069      N1075   1.351       .  A
C1070      C1071   1.411       .  A
C1070      H1081   1.082       .  S
C1071      C1080   1.386       .  A
C1071      C1072   1.384       .  A
C1072      C1073   1.403       .  A
C1072      N1078   1.345       .  A
C1073      C1074   1.402       .  A
C1073      H1082   1.082       .  S
C1074      C1077   1.376       .  A
N1075      C1076   1.360       .  A
N1075      H1085   1.044       .  S
C1076      C1077   1.396       .  A
C1077      H1083   1.082       .  S
N1078      C1079   1.357       .  A
N1078      H1086   1.045       .  S
C1079      C1080   1.401       .  A
C1080      H1084   1.082       .  S
C1087      C1092   1.384       .  A
C1087      C1088   1.404       .  A
C1087      N1093   1.343       .  A
C1088      C1089   1.402       .  A
C1088      H1099   1.083       .  S
C1089      C1098   1.377       .  A
C1089      C1090   1.384       .  A
C1090      C1091   1.412       .  A
C1090      N1096   1.351       .  A
C1091      C1092   1.412       .  A
C1091      H1100   1.082   1_565  S
C1092      C1095   1.390       .  A
N1093      C1094   1.356       .  A
N1093      H1103   1.046       .  S
C1094      C1095   1.400       .  A
C1095      H1101   1.082   1_565  S
N1096      C1097   1.358       .  A
N1096      H1104   1.045   1_565  S
C1097      C1098   1.396       .  A
C1098      H1102   1.083       .  S
C1105      C1110   1.384       .  A
C1105      C1106   1.407   1_565  A
C1105      N1111   1.346       .  A
C1106      C1107   1.406   1_545  A
C1106      H1117   1.083       .  S
C1107      C1116   1.382   1_565  A
C1107      C1108   1.384       .  A
C1108      C1109   1.404       .  A
C1108      N1114   1.345       .  A
C1109      C1110   1.403       .  A
C1109      H1118   1.082       .  S
C1110      C1113   1.378       .  A
N1111      C1112   1.356       .  A
N1111      H1121   1.055   1_565  S
C1112      C1113   1.396       .  A
C1113      H1119   1.082       .  S
N1114      C1115   1.356       .  A
N1114      H1122   1.044       .  S
C1115      C1116   1.398   1_565  A
C1116      H1120   1.082       .  S
C1123      C1128   1.384       .  A
C1123      C1124   1.406   1_565  A
C1123      N1129   1.345       .  A
C1124      C1125   1.405   1_545  A
C1124      H1135   1.082       .  S
C1125      C1134   1.381   1_565  A
C1125      C1126   1.384       .  A
C1126      C1127   1.404       .  A
C1126      N1132   1.344       .  A
C1127      C1128   1.403       .  A
C1127      H1136   1.082       .  S
C1128      C1131   1.379       .  A
N1129      C1130   1.357       .  A
N1129      H1139   1.044   1_565  S
C1130      C1131   1.395       .  A
C1131      H1137   1.082       .  S
N1132      C1133   1.355       .  A
N1132      H1140   1.049       .  S
C1133      C1134   1.398   1_565  A
C1134      H1138   1.082       .  S
C1141      C1146   1.384       .  A
C1141      C1142   1.409   1_565  A
C1141      N1147   1.347       .  A
C1142      C1143   1.408   1_545  A
C1142      H1153   1.082       .  S
C1143      C1152   1.385   1_565  A
C1143      C1144   1.382       .  A
C1144      C1145   1.406       .  A
C1144      N1150   1.344       .  A
C1145      C1146   1.404       .  A
C1145      H1154   1.082       .  S
C1146      C1149   1.382       .  A
N1147      C1148   1.358       .  A
N1147      H1157   1.045   1_565  S
C1148      C1149   1.397       .  A
C1149      H1155   1.082       .  S
N1150      C1151   1.358       .  A
N1150      H1158   1.044       .  S
C1151      C1152   1.402   1_565  A
C1152      H1156   1.081       .  S
C1159      C1164   1.384       .  A
C1159      C1160   1.406       .  A
C1159      N1165   1.347       .  A
C1160      C1161   1.406       .  A
C1160      H1171   1.082       .  S
C1161      C1170   1.380       .  A
C1161      C1162   1.383       .  A
C1162      C1163   1.403   1_565  A
C1162      N1168   1.343       .  A
C1163      C1164   1.403   1_545  A
C1163      H1172   1.083       .  S
C1164      C1167   1.377       .  A
N1165      C1166   1.357       .  A
N1165      H1175   1.044       .  S
C1166      C1167   1.396       .  A
C1167      H1173   1.082   1_565  S
N1168      C1169   1.357       .  A
N1168      H1176   1.049   1_565  S
C1169      C1170   1.401       .  A
C1170      H1174   1.080       .  S
C1177      C1182   1.383       .  A
C1177      C1178   1.409       .  A
C1177      N1183   1.348       .  A
C1178      C1179   1.408       .  A
C1178      H1189   1.082       .  S
C1179      C1188   1.385       .  A
C1179      C1180   1.383       .  A
C1180      C1181   1.401       .  A
C1180      N1186   1.341       .  A
C1181      C1182   1.400       .  A
C1181      H1190   1.083       .  S
C1182      C1185   1.373       .  A
N1183      C1184   1.359       .  A
N1183      H1193   1.044       .  S
C1184      C1185   1.397       .  A
C1185      H1191   1.082       .  S
N1186      C1187   1.358       .  A
N1186      H1194   1.044       .  S
C1187      C1188   1.399       .  A
C1188      H1192   1.082       .  S
C1195      C1200   1.382       .  A
C1195      C1196   1.396       .  A
C1195      N1201   1.336       .  A
C1196      C1197   1.395       .  A
C1196      H1207   1.083       .  S
C1197      C1206   1.368       .  A
C1197      C1198   1.381       .  A
C1198      C1199   1.412       .  A
C1198      N1204   1.350       .  A
C1199      C1200   1.412       .  A
C1199      H1208   1.082       .  S
C1200      C1203   1.388       .  A
N1201      C1202   1.356       .  A
N1201      H1211   1.043       .  S
C1202      C1203   1.402       .  A
C1203      H1209   1.082       .  S
N1204      C1205   1.362       .  A
N1204      H1212   1.045       .  S
C1205      C1206   1.396       .  A
C1206      H1210   1.081       .  S
C1213      C1218   1.384       .  A
C1213      C1214   1.399       .  A
C1213      N1219   1.339       .  A
C1214      C1215   1.398       .  A
C1214      H1225   1.083       .  S
C1215      C1224   1.372       .  A
C1215      C1216   1.383       .  A
C1216      C1217   1.408       .  A
C1216      N1222   1.347       .  A
C1217      C1218   1.407       .  A
C1217      H1226   1.082       .  S
C1218      C1221   1.384       .  A
N1219      C1220   1.356       .  A
N1219      H1229   1.044       .  S
C1220      C1221   1.398       .  A
C1221      H1227   1.082       .  S
N1222      C1223   1.359       .  A
N1222      H1230   1.045       .  S
C1223      C1224   1.396       .  A
C1224      H1228   1.082       .  S
C1231      C1236   1.383       .  A
C1231      C1232   1.407       .  A
C1231      N1237   1.345       .  A
C1232      C1233   1.406       .  A
C1232      H1243   1.082       .  S
C1233      C1242   1.384       .  A
C1233      C1234   1.383       .  A
C1234      C1235   1.404       .  A
C1234      N1240   1.342       .  A
C1235      C1236   1.402       .  A
C1235      H1244   1.082       .  S
C1236      C1239   1.379       .  A
N1237      C1238   1.358       .  A
N1237      H1247   1.045       .  S
C1238      C1239   1.398       .  A
C1239      H1245   1.082       .  S
N1240      C1241   1.358       .  A
N1240      H1248   1.044       .  S
C1241      C1242   1.397       .  A
C1242      H1246   1.082       .  S
C1249      C1254   1.383   1_556  A
C1249      C1250   1.403       .  A
C1249      N1255   1.343       .  A
C1250      C1251   1.402       .  A
C1250      H1261   1.082       .  S
C1251      C1260   1.377       .  A
C1251      C1252   1.384   1_556  A
C1252      C1253   1.405       .  A
C1252      N1258   1.345       .  A
C1253      C1254   1.404       .  A
C1253      H1262   1.082       .  S
C1254      C1257   1.378       .  A
N1255      C1256   1.359       .  A
N1255      H1265   1.039       .  S
C1256      C1257   1.399   1_556  A
C1257      H1263   1.082       .  S
N1258      C1259   1.356   1_554  A
N1258      H1266   1.045       .  S
C1259      C1260   1.395       .  A
C1260      H1264   1.082       .  S
C1267      C1272   1.384       .  A
C1267      C1268   1.412   1_554  A
C1267      N1273   1.351       .  A
C1268      C1269   1.411   1_556  A
C1268      H1279   1.082       .  S
C1269      C1278   1.389   1_554  A
C1269      C1270   1.385       .  A
C1270      C1271   1.399       .  A
C1270      N1276   1.340       .  A
C1271      C1272   1.398       .  A
C1271      H1280   1.083       .  S
C1272      C1275   1.373       .  A
N1273      C1274   1.359       .  A
N1273      H1283   1.044   1_554  S
C1274      C1275   1.393       .  A
C1275      H1281   1.083       .  S
N1276      C1277   1.353       .  A
N1276      H1284   1.044       .  S
C1277      C1278   1.399   1_554  A
C1278      H1282   1.082       .  S
C1285      C1290   1.384       .  A
C1285      C1286   1.401       .  A
C1285      N1291   1.340       .  A
C1286      C1287   1.400       .  A
C1286      H1297   1.083       .  S
C1287      C1296   1.375       .  A
C1287      C1288   1.383       .  A
C1288      C1289   1.407       .  A
C1288      N1294   1.346       .  A
C1289      C1290   1.406       .  A
C1289      H1298   1.082       .  S
C1290      C1293   1.383       .  A
N1291      C1292   1.356       .  A
N1291      H1301   1.044       .  S
C1292      C1293   1.397       .  A
C1293      H1299   1.082       .  S
N1294      C1295   1.358       .  A
N1294      H1302   1.044       .  S
C1295      C1296   1.396       .  A
C1296      H1300   1.082       .  S
C1303      C1308   1.382       .  A
C1303      C1304   1.411       .  A
C1303      N1309   1.351       .  A
C1304      C1305   1.411       .  A
C1304      H1315   1.082       .  S
C1305      C1314   1.386       .  A
C1305      C1306   1.383       .  A
C1306      C1307   1.397       .  A
C1306      N1312   1.339       .  A
C1307      C1308   1.397       .  A
C1307      H1316   1.083       .  S
C1308      C1311   1.368       .  A
N1309      C1310   1.361       .  A
N1309      H1319   1.045       .  S
C1310      C1311   1.397       .  A
C1311      H1317   1.081       .  S
N1312      C1313   1.355       .  A
N1312      H1320   1.046       .  S
C1313      C1314   1.401       .  A
C1314      H1318   1.082       .  S
C1321      C1326   1.384       .  A
C1321      C1322   1.400       .  A
C1321      N1327   1.341       .  A
C1322      C1323   1.400       .  A
C1322      H1333   1.083       .  S
C1323      C1332   1.372       .  A
C1323      C1324   1.383       .  A
C1324      C1325   1.409       .  A
C1324      N1330   1.349       .  A
C1325      C1326   1.409       .  A
C1325      H1334   1.082       .  S
C1326      C1329   1.384       .  A
N1327      C1328   1.356       .  A
N1327      H1337   1.044       .  S
C1328      C1329   1.399       .  A
C1329      H1335   1.082       .  S
N1330      C1331   1.358       .  A
N1330      H1338   1.045       .  S
C1331      C1332   1.396       .  A
C1332      H1336   1.082       .  S
C1339      C1344   1.384       .  A
C1339      C1340   1.396       .  A
C1339      N1345   1.339       .  A
C1340      C1341   1.395       .  A
C1340      H1351   1.083       .  S
C1341      C1350   1.368       .  A
C1341      C1342   1.383       .  A
C1342      C1343   1.412       .  A
C1342      N1348   1.350       .  A
C1343      C1344   1.412       .  A
C1343      H1352   1.082       .  S
C1344      C1347   1.387       .  A
N1345      C1346   1.354       .  A
N1345      H1355   1.044       .  S
C1346      C1347   1.402       .  A
C1347      H1353   1.082       .  S
N1348      C1349   1.360       .  A
N1348      H1356   1.045       .  S
C1349      C1350   1.394       .  A
C1350      H1354   1.082       .  S
C1357      C1362   1.382   1_556  A
C1357      C1358   1.405       .  A
C1357      N1363   1.345       .  A
C1358      C1359   1.404       .  A
C1358      H1369   1.082       .  S
C1359      C1368   1.379       .  A
C1359      C1360   1.384   1_556  A
C1360      C1361   1.408       .  A
C1360      N1366   1.349       .  A
C1361      C1362   1.408       .  A
C1361      H1370   1.082       .  S
C1362      C1365   1.381       .  A
N1363      C1364   1.358   1_556  A
N1363      H1373   1.045       .  S
C1364      C1365   1.403       .  A
C1365      H1371   1.081       .  S
N1366      C1367   1.359       .  A
N1366      H1374   1.045       .  S
C1367      C1368   1.396   1_554  A
C1368      H1372   1.082       .  S
C1375      C1380   1.385       .  A
C1375      C1376   1.408   1_556  A
C1375      N1381   1.349   1_556  A
C1376      C1377   1.408   1_554  A
C1376      H1387   1.082       .  S
C1377      C1386   1.384   1_556  A
C1377      C1378   1.385       .  A
C1378      C1379   1.400       .  A
C1378      N1384   1.341       .  A
C1379      C1380   1.399       .  A
C1379      H1388   1.083       .  S
C1380      C1383   1.374       .  A
N1381      C1382   1.357   1_554  A
N1381      H1391   1.045       .  S
C1382      C1383   1.393       .  A
C1383      H1389   1.083       .  S
N1384      C1385   1.354       .  A
N1384      H1392   1.045       .  S
C1385      C1386   1.396   1_556  A
C1386      H1390   1.082       .  S
C1393      C1398   1.385   1_556  A
C1393      C1394   1.404       .  A
C1393      N1399   1.344       .  A
C1394      C1395   1.404       .  A
C1394      H1405   1.082       .  S
C1395      C1404   1.378       .  A
C1395      C1396   1.385   1_556  A
C1396      C1397   1.401       .  A
C1396      N1402   1.343       .  A
C1397      C1398   1.401       .  A
C1397      H1406   1.082       .  S
C1398      C1401   1.376       .  A
N1399      C1400   1.356       .  A
N1399      H1409   1.045       .  S
C1400      C1401   1.394   1_556  A
C1401      H1407   1.082       .  S
N1402      C1403   1.354   1_554  A
N1402      H1410   1.045       .  S
C1403      C1404   1.396       .  A
C1404      H1408   1.082       .  S
C1411      C1416   1.384   1_556  A
C1411      C1412   1.405       .  A
C1411      N1417   1.346       .  A
C1412      C1413   1.405       .  A
C1412      H1423   1.082       .  S
C1413      C1422   1.377       .  A
C1413      C1414   1.383   1_556  A
C1414      C1415   1.403       .  A
C1414      N1420   1.345       .  A
C1415      C1416   1.403       .  A
C1415      H1424   1.082       .  S
C1416      C1419   1.377       .  A
N1417      C1418   1.357       .  A
N1417      H1427   1.045       .  S
C1418      C1419   1.395   1_556  A
C1419      H1425   1.082       .  S
N1420      C1421   1.358       .  A
N1420      H1428   1.043       .  S
C1421      C1422   1.398   1_554  A
C1422      H1426   1.082       .  S
C1429      C1434   1.384       .  A
C1429      C1430   1.400       .  A
C1429      N1435   1.340       .  A
C1430      C1431   1.399       .  A
C1430      H1441   1.083       .  S
C1431      C1440   1.375       .  A
C1431      C1432   1.383       .  A
C1432      C1433   1.410       .  A
C1432      N1438   1.348       .  A
C1433      C1434   1.408       .  A
C1433      H1442   1.082       .  S
C1434      C1437   1.386       .  A
N1435      C1436   1.354       .  A
N1435      H1445   1.044       .  S
C1436      C1437   1.398       .  A
C1437      H1443   1.082       .  S
N1438      C1439   1.359       .  A
N1438      H1446   1.046       .  S
C1439      C1440   1.395       .  A
C1440      H1444   1.082       .  S
C1447      C1452   1.383       .  A
C1447      C1448   1.410       .  A
C1447      N1453   1.348       .  A
C1448      C1449   1.409       .  A
C1448      H1459   1.082       .  S
C1449      C1458   1.388       .  A
C1449      C1450   1.383       .  A
C1450      C1451   1.399       .  A
C1450      N1456   1.337       .  A
C1451      C1452   1.397       .  A
C1451      H1460   1.083       .  S
C1452      C1455   1.373       .  A
N1453      C1454   1.358       .  A
N1453      H1463   1.044       .  S
C1454      C1455   1.395       .  A
C1455      H1461   1.082       .  S
N1456      C1457   1.356       .  A
N1456      H1464   1.044       .  S
C1457      C1458   1.399       .  A
C1458      H1462   1.082       .  S
C1465      C1470   1.383       .  A
C1465      C1466   1.411       .  A
C1465      N1471   1.350       .  A
C1466      C1467   1.410       .  A
C1466      H1477   1.082       .  S
C1467      C1476   1.386       .  A
C1467      C1468   1.384       .  A
C1468      C1469   1.397       .  A
C1468      N1474   1.338       .  A
C1469      C1470   1.396       .  A
C1469      H1478   1.083       .  S
C1470      C1473   1.369       .  A
N1471      C1472   1.359       .  A
N1471      H1481   1.044       .  S
C1472      C1473   1.393       .  A
C1473      H1479   1.082       .  S
N1474      C1475   1.353       .  A
N1474      H1482   1.044       .  S
C1475      C1476   1.399       .  A
C1476      H1480   1.082       .  S
C1483      C1488   1.384       .  A
C1483      C1484   1.410       .  A
C1483      N1489   1.348       .  A
C1484      C1485   1.409       .  A
C1484      H1495   1.082       .  S
C1485      C1494   1.385       .  A
C1485      C1486   1.384       .  A
C1486      C1487   1.401       .  A
C1486      N1492   1.342       .  A
C1487      C1488   1.401       .  A
C1487      H1496   1.082       .  S
C1488      C1491   1.376       .  A
N1489      C1490   1.359       .  A
N1489      H1499   1.047       .  S
C1490      C1491   1.396       .  A
C1491      H1497   1.082       .  S
N1492      C1493   1.355       .  A
N1492      H1500   1.044       .  S
C1493      C1494   1.399       .  A
C1494      H1498   1.082       .  S
C1501      C1506   1.383   1_556  A
C1501      C1502   1.406       .  A
C1501      N1507   1.346       .  A
C1502      C1503   1.405       .  A
C1502      H1513   1.082       .  S
C1503      C1512   1.381       .  A
C1503      C1504   1.384   1_556  A
C1504      C1505   1.402       .  A
C1504      N1510   1.343       .  A
C1505      C1506   1.402       .  A
C1505      H1514   1.082       .  S
C1506      C1509   1.375       .  A
N1507      C1508   1.359       .  A
N1507      H1517   1.044       .  S
C1508      C1509   1.397   1_556  A
C1509      H1515   1.082       .  S
N1510      C1511   1.355   1_554  A
N1510      H1518   1.044       .  S
C1511      C1512   1.397       .  A
C1512      H1516   1.082       .  S
C1519      C1524   1.384       .  A
C1519      C1520   1.408   1_554  A
C1519      N1525   1.349   1_554  A
C1520      C1521   1.408   1_556  A
C1520      H1531   1.082       .  S
C1521      C1530   1.384   1_554  A
C1521      C1522   1.385       .  A
C1522      C1523   1.400       .  A
C1522      N1528   1.341       .  A
C1523      C1524   1.400       .  A
C1523      H1532   1.083       .  S
C1524      C1527   1.373       .  A
N1525      C1526   1.357   1_556  A
N1525      H1535   1.044       .  S
C1526      C1527   1.394       .  A
C1527      H1533   1.083       .  S
N1528      C1529   1.354       .  A
N1528      H1536   1.044       .  S
C1529      C1530   1.395   1_554  A
C1530      H1534   1.082       .  S
C1537      C1542   1.384   1_554  A
C1537      C1538   1.405       .  A
C1537      N1543   1.344       .  A
C1538      C1539   1.403       .  A
C1538      H1549   1.082       .  S
C1539      C1548   1.379       .  A
C1539      C1540   1.384   1_554  A
C1540      C1541   1.406       .  A
C1540      N1546   1.346       .  A
C1541      C1542   1.405       .  A
C1541      H1550   1.082       .  S
C1542      C1545   1.383       .  A
N1543      C1544   1.357   1_554  A
N1543      H1553   1.045       .  S
C1544      C1545   1.397       .  A
C1545      H1551   1.082       .  S
N1546      C1547   1.356       .  A
N1546      H1554   1.045       .  S
C1547      C1548   1.396   1_556  A
C1548      H1552   1.082       .  S
C1555      C1560   1.384   1_556  A
C1555      C1556   1.405       .  A
C1555      N1561   1.345       .  A
C1556      C1557   1.405       .  A
C1556      H1567   1.082       .  S
C1557      C1566   1.379       .  A
C1557      C1558   1.383   1_556  A
C1558      C1559   1.401       .  A
C1558      N1564   1.341       .  A
C1559      C1560   1.401       .  A
C1559      H1568   1.082       .  S
C1560      C1563   1.376       .  A
N1561      C1562   1.357       .  A
N1561      H1571   1.045       .  S
C1562      C1563   1.394   1_556  A
C1563      H1569   1.082       .  S
N1564      C1565   1.355   1_554  A
N1564      H1572   1.044       .  S
C1565      C1566   1.402       .  A
C1566      H1570   1.081       .  S
C1573      C1578   1.383       .  A
C1573      C1574   1.394       .  A
C1573      N1579   1.335       .  A
C1574      C1575   1.393       .  A
C1574      H1585   1.083       .  S
C1575      C1584   1.367       .  A
C1575      C1576   1.382       .  A
C1576      C1577   1.413       .  A
C1576      N1582   1.350       .  A
C1577      C1578   1.412       .  A
C1577      H1586   1.082       .  S
C1578      C1581   1.389       .  A
N1579      C1580   1.353       .  A
N1579      H1589   1.044       .  S
C1580      C1581   1.402       .  A
C1581      H1587   1.082       .  S
N1582      C1583   1.361       .  A
N1582      H1590   1.045       .  S
C1583      C1584   1.394       .  A
C1584      H1588   1.082       .  S
C1591      C1596   1.383       .  A
C1591      C1592   1.412       .  A
C1591      N1597   1.350       .  A
C1592      C1593   1.412       .  A
C1592      H1603   1.082       .  S
C1593      C1602   1.388       .  A
C1593      C1594   1.384       .  A
C1594      C1595   1.398       .  A
C1594      N1600   1.340       .  A
C1595      C1596   1.397       .  A
C1595      H1604   1.082       .  S
C1596      C1599   1.372       .  A
N1597      C1598   1.360       .  A
N1597      H1607   1.045       .  S
C1598      C1599   1.393       .  A
C1599      H1605   1.082       .  S
N1600      C1601   1.353       .  A
N1600      H1608   1.044       .  S
C1601      C1602   1.401       .  A
C1602      H1606   1.082       .  S
C1609      C1614   1.384       .  A
C1609      C1610   1.398       .  A
C1609      N1615   1.339       .  A
C1610      C1611   1.397       .  A
C1610      H1621   1.082       .  S
C1611      C1620   1.372       .  A
C1611      C1612   1.383       .  A
C1612      C1613   1.414       .  A
C1612      N1618   1.351       .  A
C1613      C1614   1.413       .  A
C1613      H1622   1.082       .  S
C1614      C1617   1.390       .  A
N1615      C1616   1.354       .  A
N1615      H1625   1.044       .  S
C1616      C1617   1.403       .  A
C1617      H1623   1.082       .  S
N1618      C1619   1.361       .  A
N1618      H1626   1.045       .  S
C1619      C1620   1.394       .  A
C1620      H1624   1.082       .  S
C1627      C1632   1.382   1_554  A
C1627      C1628   1.410       .  A
C1627      N1633   1.350       .  A
C1628      C1629   1.410       .  A
C1628      H1639   1.082       .  S
C1629      C1638   1.386       .  A
C1629      C1630   1.384   1_554  A
C1630      C1631   1.405       .  A
C1630      N1636   1.347       .  A
C1631      C1632   1.405       .  A
C1631      H1640   1.082       .  S
C1632      C1635   1.379       .  A
N1633      C1634   1.362       .  A
N1633      H1643   1.043       .  S
C1634      C1635   1.398   1_554  A
C1635      H1641   1.082       .  S
N1636      C1637   1.357       .  A
N1636      H1644   1.045       .  S
C1637      C1638   1.401   1_556  A
C1638      H1642   1.082       .  S
C1645      C1650   1.384       .  A
C1645      C1646   1.407       .  A
C1645      N1651   1.346       .  A
C1646      C1647   1.406       .  A
C1646      H1657   1.082       .  S
C1647      C1656   1.382       .  A
C1647      C1648   1.384       .  A
C1648      C1649   1.403       .  A
C1648      N1654   1.344       .  A
C1649      C1650   1.403       .  A
C1649      H1658   1.082       .  S
C1650      C1653   1.378       .  A
N1651      C1652   1.358       .  A
N1651      H1661   1.045       .  S
C1652      C1653   1.397       .  A
C1653      H1659   1.082       .  S
N1654      C1655   1.356       .  A
N1654      H1662   1.044       .  S
C1655      C1656   1.397       .  A
C1656      H1660   1.082       .  S
C1663      C1668   1.385       .  A
C1663      C1664   1.409   1_556  A
C1663      N1669   1.349   1_556  A
C1664      C1665   1.409   1_554  A
C1664      H1675   1.082       .  S
C1665      C1674   1.386   1_556  A
C1665      C1666   1.385       .  A
C1666      C1667   1.400       .  A
C1666      N1672   1.340       .  A
C1667      C1668   1.399       .  A
C1667      H1676   1.083       .  S
C1668      C1671   1.374       .  A
N1669      C1670   1.357   1_554  A
N1669      H1679   1.044       .  S
C1670      C1671   1.393       .  A
C1671      H1677   1.083       .  S
N1672      C1673   1.353       .  A
N1672      H1680   1.044       .  S
C1673      C1674   1.397   1_556  A
C1674      H1678   1.082       .  S
C1681      C1686   1.385   1_554  A
C1681      C1682   1.402       .  A
C1681      N1687   1.341       .  A
C1682      C1683   1.401       .  A
C1682      H1693   1.082       .  S
C1683      C1692   1.378       .  A
C1683      C1684   1.384   1_554  A
C1684      C1685   1.405       .  A
C1684      N1690   1.343       .  A
C1685      C1686   1.404       .  A
C1685      H1694   1.082       .  S
C1686      C1689   1.380       .  A
N1687      C1688   1.354   1_554  A
N1687      H1697   1.045       .  S
C1688      C1689   1.397       .  A
C1689      H1695   1.082       .  S
N1690      C1691   1.357       .  A
N1690      H1698   1.045       .  S
C1691      C1692   1.394   1_556  A
C1692      H1696   1.082       .  S
C1699      C1704   1.384   1_556  A
C1699      C1700   1.406       .  A
C1699      N1705   1.348       .  A
C1700      C1701   1.406       .  A
C1700      H1711   1.082       .  S
C1701      C1710   1.381       .  A
C1701      C1702   1.384   1_556  A
C1702      C1703   1.404       .  A
C1702      N1708   1.346       .  A
C1703      C1704   1.404       .  A
C1703      H1712   1.082       .  S
C1704      C1707   1.377       .  A
N1705      C1706   1.357       .  A
N1705      H1715   1.044       .  S
C1706      C1707   1.396   1_556  A
C1707      H1713   1.082       .  S
N1708      C1709   1.357   1_554  A
N1708      H1716   1.045       .  S
C1709      C1710   1.397       .  A
C1710      H1714   1.082       .  S
C1717      C1722   1.383   1_556  A
C1717      C1718   1.405       .  A
C1717      N1723   1.345       .  A
C1718      C1719   1.404       .  A
C1718      H1729   1.082       .  S
C1719      C1728   1.380       .  A
C1719      C1720   1.384   1_556  A
C1720      C1721   1.404       .  A
C1720      N1726   1.344       .  A
C1721      C1722   1.403       .  A
C1721      H1730   1.082       .  S
C1722      C1725   1.377       .  A
N1723      C1724   1.360       .  A
N1723      H1733   1.044       .  S
C1724      C1725   1.398   1_556  A
C1725      H1731   1.082       .  S
N1726      C1727   1.356   1_554  A
N1726      H1734   1.044       .  S
C1727      C1728   1.397       .  A
C1728      H1732   1.082       .  S
C1735      C1740   1.384   1_554  A
C1735      C1736   1.407       .  A
C1735      N1741   1.346       .  A
C1736      C1737   1.406       .  A
C1736      H1747   1.082       .  S
C1737      C1746   1.383       .  A
C1737      C1738   1.383   1_554  A
C1738      C1739   1.404       .  A
C1738      N1744   1.342       .  A
C1739      C1740   1.402       .  A
C1739      H1748   1.082       .  S
C1740      C1743   1.379       .  A
N1741      C1742   1.357   1_554  A
N1741      H1751   1.045       .  S
C1742      C1743   1.395       .  A
C1743      H1749   1.082       .  S
N1744      C1745   1.357   1_556  A
N1744      H1752   1.045       .  S
C1745      C1746   1.401       .  A
C1746      H1750   1.081       .  S
