geometry optimzed in LAMMPS
_audit_creation_date              2020-12-01 
_audit_creation_method            'lammps2cif' 
_symmetry_space_group_name_H-M    'P1' 
_symmetry_Int_Tables_number       1 
_symmetry_cell_setting            triclinic 
loop_ 
_symmetry_equiv_pos_as_xyz 
  x,y,z 
_cell_length_a                    40.78849747 
_cell_length_b                    40.64237366974075 
_cell_length_c                    108.75881331726907 
_cell_angle_alpha                 89.81725005475086 
_cell_angle_beta                  90.18724301874745 
_cell_angle_gamma                 121.16685860844662 
loop_ 
_atom_site_label 
_atom_site_type_symbol 
_atom_site_fract_x 
_atom_site_fract_y 
_atom_site_fract_z 
_atom_site_charge 
Zn1        Zn  0.17270417  0.33089196  0.36540156     1.49700
Zn2        Zn  0.22658365  0.36010397  0.38760649     1.49400
Zn3        Zn  0.14695406  0.35947951  0.38737160     1.49100
Zn4        Zn  0.14554244  0.27865856  0.38847329     1.49500
O5          O  0.17281443  0.33222528  0.38271448    -1.83000
O6          O  0.22203504  0.36689173  0.35811927    -0.73600
O7          O  0.23555926  0.40304166  0.39868608    -0.73400
O8          O  0.12508543  0.37354508  0.37259158    -0.73000
O9          O  0.26391410  0.38466849  0.37331698    -0.73600
O10         O  0.13697184  0.34328147  0.35801066    -0.73200
O11         O  0.18254535  0.40600481  0.39760102    -0.73800
O12         O  0.10131154  0.26936250  0.39919142    -0.73200
O13         O  0.23829057  0.32465869  0.39700919    -0.74000
O14         O  0.10330553  0.32518295  0.39833268    -0.73400
O15         O  0.18198040  0.26983353  0.39873685    -0.73800
O16         O  0.12481583  0.24006372  0.37418028    -0.73700
O17         O  0.15764500  0.28071333  0.35914222    -0.73500
C18         C  0.25615962  0.38527479  0.36200808     0.78300
C19         C  0.21636689  0.41845963  0.40163830     0.78800
C20         C  0.12216451  0.36234795  0.36148235     0.77700
C21         C  0.08855798  0.29090357  0.40228364     0.78100
C22         C  0.21778511  0.29039833  0.40105372     0.79200
C23         C  0.13527906  0.24687476  0.36296526     0.78300
Zn24       Zn  0.02967000  0.05643597  0.26495007     1.49700
Zn25       Zn  0.01206217  0.50385562  0.28789968     1.49400
Zn26       Zn  0.45303134  0.47875003  0.26600184     1.49100
Zn27       Zn  0.02902864  0.47034595  0.26541520     1.49500
O28         O  0.00749298  0.50165401  0.27057989    -1.83000
O29         O  0.04844744  0.09362969  0.27975268    -0.73600
O30         O  0.46262591  0.48601057  0.29585819    -0.73400
O31         O  0.43854799  0.01497604  0.25464750    -0.73000
O32         O  0.01331807  0.05191147  0.29429423    -0.73600
O33         O  0.49658477  0.06777254  0.25374635    -0.73200
O34         O  0.41863254  0.46467101  0.28112350    -0.73800
O35         O  0.48939531  0.42668759  0.25508036    -0.73200
O36         O  0.03084120  0.47286108  0.29483352    -0.74000
O37         O  0.43788555  0.43250821  0.25531403    -0.73400
O38         O  0.04551308  0.44754241  0.27948371    -0.73800
O39         O  0.06942652  0.00702171  0.25486521    -0.73700
O40         O  0.07345005  0.06394890  0.25434538    -0.73500
C41         C  0.03610297  0.08601724  0.29079976     0.78300
C42         C  0.42811770  0.47080674  0.29244443     0.78800
C43         C  0.46138119  0.04886567  0.25059912     0.77700
C44         C  0.45537428  0.41588536  0.25165591     0.78100
C45         C  0.04352336  0.45232839  0.29096582     0.79200
C46         C  0.08501607  0.04156165  0.25103356     0.78300
C47         C  0.16453000  0.33822871  0.81067332     0.46600
H48         H  0.16461243  0.33713213  0.82087761    -0.02400
C49         C  0.16448051  0.34152940  0.78672428     0.46600
H50         H  0.16425810  0.34294553  0.77650828    -0.02400
C51         C  0.14401943  0.35826155  0.80542963    -0.16100
C52         C  0.20512082  0.36074236  0.80484574    -0.15900
C53         C  0.14408745  0.29807755  0.80440364    -0.16300
C54         C  0.14432822  0.35983731  0.79287367    -0.16200
C55         C  0.20446375  0.36190007  0.79224258    -0.15800
C56         C  0.14461937  0.30062220  0.79177765    -0.16100
C57         C  0.50197662  0.00129596  0.83800994     0.46600
H58         H  0.50027632  0.00025495  0.82781041    -0.02400
C59         C  0.50577854  0.00301563  0.86189476     0.46600
H60         H  0.50757890  0.00412009  0.87208344    -0.02400
C61         C  0.01996245  0.04242743  0.84340582    -0.16100
C62         C  0.45648628  0.47616801  0.84397540    -0.15900
C63         C  0.01921294  0.48164726  0.84289605    -0.16300
C64         C  0.02198231  0.04280501  0.85603997    -0.16200
C65         C  0.45918363  0.47724739  0.85658956    -0.15800
C66         C  0.02117733  0.48259016  0.85553602    -0.16100
C67         C  0.17411199  0.32898963  0.53040165     0.46600
H68         H  0.17377102  0.32836459  0.54063112    -0.02400
C69         C  0.17512153  0.33065687  0.50645175     0.46600
H70         H  0.17542686  0.33140387  0.49624252    -0.02400
C71         C  0.19498028  0.36952303  0.52509752    -0.16100
C72         C  0.19342936  0.30899621  0.52475011    -0.15900
C73         C  0.13438662  0.30956708  0.52466975    -0.16300
C74         C  0.19560286  0.37112596  0.51249076    -0.16200
C75         C  0.19459376  0.30989295  0.51210741    -0.15800
C76         C  0.13408056  0.30974283  0.51203334    -0.16100
C77         C  0.33956691  0.16409508  0.45473682     0.46600
H78         H  0.33988363  0.16344692  0.44451382    -0.02400
C79         C  0.33872685  0.16558857  0.47868411     0.46600
H80         H  0.33833841  0.16597922  0.48889246    -0.02400
C81         C  0.31764137  0.12424867  0.46051341    -0.16100
C82         C  0.37917856  0.18282069  0.46055872    -0.15900
C83         C  0.32115763  0.18569664  0.45989806    -0.16300
C84         C  0.31707064  0.12457509  0.47313737    -0.16200
C85         C  0.37959692  0.18415413  0.47317662    -0.15800
C86         C  0.32039543  0.18670089  0.47250975    -0.16100
Zn87       Zn  0.37451368  0.22072575  0.59813265     1.49700
Zn88       Zn  0.36237676  0.13479412  0.59817742     1.49400
Zn89       Zn  0.34469534  0.16920148  0.62100443     1.49100
Zn90       Zn  0.28841593  0.14377613  0.59889249     1.49500
O91         O  0.34251028  0.16720420  0.60357208    -1.83000
O92         O  0.41735277  0.22462751  0.58764297    -0.73600
O93         O  0.37251427  0.10839892  0.61259048    -0.73400
O94         O  0.38519498  0.21770448  0.62778648    -0.73000
O95         O  0.41013840  0.16635296  0.58812740    -0.73600
O96         O  0.39855129  0.25922699  0.61264892    -0.73200
O97         O  0.35317989  0.13047095  0.62776282    -0.73800
O98         O  0.25385698  0.13308499  0.61383545    -0.73200
O99         O  0.32408930  0.09365544  0.58690341    -0.74000
O100        O  0.29738337  0.15999597  0.62859704    -0.73400
O101        O  0.27026423  0.09455825  0.58900008    -0.73800
O102        O  0.28373179  0.18112775  0.58781607    -0.73700
O103        O  0.34206257  0.23390180  0.58730693    -0.73500
C104        C  0.42778799  0.20118407  0.58447246     0.78300
C105        C  0.36545053  0.10951736  0.62394368     0.78800
C106        C  0.40140960  0.25192476  0.62390723     0.77700
C107        C  0.26292781  0.14331416  0.62500680     0.78100
C108        C  0.28886667  0.08018233  0.58441393     0.79200
C109        C  0.30692973  0.21519116  0.58398534     0.78300
Zn110      Zn  0.00442764  0.00151395  0.69770059     1.49700
Zn111      Zn  0.05843483  0.03396355  0.71989836     1.49400
Zn112      Zn  0.47466952  0.02486290  0.72037634     1.49100
Zn113      Zn  0.47929980  0.45366484  0.72009415     1.49500
O114        O  0.00432362  0.00212195  0.71509146    -1.83000
O115        O  0.05380081  0.03664567  0.69030050    -0.73600
O116        O  0.06599582  0.07976520  0.72914843    -0.73400
O117        O  0.44975848  0.03641453  0.70582741    -0.73000
O118        O  0.09603378  0.05544910  0.70540871    -0.73600
O119        O  0.46975959  0.01453726  0.69079738    -0.73200
O120        O  0.00881033  0.07428642  0.72997765    -0.73800
O121        O  0.43247552  0.43954744  0.73064700    -0.73200
O122        O  0.07147973  0.00364841  0.73151332    -0.74000
O123        O  0.43018355  0.49314527  0.73106916    -0.73400
O124        O  0.01841011  0.45169763  0.73112910    -0.73800
O125        O  0.46525036  0.41463844  0.70578936    -0.73700
O126        O  0.48474170  0.45626614  0.69044260    -0.73500
C127        C  0.08805765  0.05494010  0.69405105     0.78300
C128        C  0.04445207  0.09203214  0.73258291     0.78800
C129        C  0.45075073  0.02910990  0.69448648     0.77700
C130        C  0.41717677  0.45838487  0.73430936     0.78100
C131        C  0.05284941  0.47514341  0.73447532     0.79200
C132        C  0.47049683  0.42224543  0.69431042     0.78300
C133        C  0.33230209  0.16682017  0.19735219     0.46600
H134        H  0.33200605  0.16577194  0.20757692    -0.02400
C135        C  0.33245185  0.16948558  0.17342423     0.46600
H136        H  0.33239915  0.17031011  0.16321642    -0.02400
C137        C  0.29245369  0.14863571  0.19170606    -0.16100
C138        C  0.35440877  0.20765579  0.19214921    -0.15900
C139        C  0.35031695  0.14604864  0.19152233    -0.16300
C140        C  0.29189069  0.14952897  0.17912132    -0.16200
C141        C  0.35423212  0.20969397  0.17951797    -0.15800
C142        C  0.35096151  0.14732872  0.17888153    -0.16100
C143        C  0.99703470  0.00342767  0.14647579     0.46600
H144        H  0.99677880  0.00303355  0.15668739    -0.02400
C145        C  0.99789324  0.00513885  0.12262394     0.46600
H146        H  0.99749196  0.00496567  0.11242793    -0.02400
C147        C  0.48040368  0.46370826  0.13956491    -0.16100
C148        C  0.47948297  0.02629053  0.14097314    -0.15900
C149        C  0.03787457  0.02325642  0.14090111    -0.16300
C150        C  0.48010769  0.46511346  0.12691343    -0.16200
C151        C  0.48073417  0.02741586  0.12834683    -0.15800
C152        C  0.03800514  0.02340241  0.12823130    -0.16100
Zn153      Zn  0.14132602  0.36508671  0.94228906     1.49700
Zn154      Zn  0.13421486  0.28247143  0.94189213     1.49400
Zn155      Zn  0.16158877  0.33569563  0.91833964     1.49100
Zn156      Zn  0.21794184  0.35985173  0.94132210     1.49500
O157        O  0.16392775  0.33584410  0.93611382    -1.83000
O158        O  0.09548226  0.33141999  0.95295621    -0.73600
O159        O  0.11193672  0.24437333  0.92773249    -0.73400
O160        O  0.13349670  0.36047952  0.91212557    -0.73000
O161        O  0.09211570  0.27504338  0.95328254    -0.73600
O162        O  0.12558988  0.38836778  0.92844519    -0.73200
O163        O  0.13657487  0.28260929  0.91143637    -0.79200
O164        O  0.25438285  0.37821518  0.92652649    -0.73200
O165        O  0.16723561  0.27040071  0.95251416    -0.74000
O166        O  0.21358834  0.36515478  0.91108611    -0.73400
O167        O  0.22527466  0.32310802  0.95202776    -0.73800
O168        O  0.23181917  0.40457545  0.95275405    -0.73700
O169        O  0.17827689  0.40632270  0.95387391    -0.73500
C170        C  0.08071044  0.29715628  0.95695797     0.78300
C171        C  0.11704625  0.24928907  0.91615870     0.78800
C172        C  0.12276605  0.38185572  0.91690674     0.77700
C173        C  0.24749241  0.37921204  0.91510830     0.78100
C174        C  0.20204755  0.28928942  0.95602186     0.79200
C175        C  0.21252478  0.41819128  0.95729416     0.78300
Zn176      Zn  0.27796985  0.14053698  0.04192713     1.49700
Zn177      Zn  0.32812456  0.16392732  0.06619152     1.49400
Zn178      Zn  0.35716100  0.13987179  0.04321536     1.49100
Zn179      Zn  0.35840149  0.22017261  0.04307757     1.49500
O180        O  0.33044161  0.16620732  0.04844771    -1.83000
O181        O  0.23823796  0.12060699  0.05555501    -0.73600
O182        O  0.34925925  0.13394428  0.07319775    -0.73400
O183        O  0.32354757  0.09665432  0.03164448    -0.73000
O184        O  0.27474491  0.13758331  0.07230564    -0.73600
O185        O  0.26900585  0.09669972  0.03113265    -0.73200
O186        O  0.37416374  0.11953188  0.05750994    -0.73800
O187        O  0.40357553  0.23024691  0.03255423    -0.73200
O188        O  0.35798653  0.21624133  0.07350278    -0.74000
O189        O  0.40296393  0.17520296  0.03307938    -0.73400
O190        O  0.37653979  0.25706689  0.05774164    -0.73800
O191        O  0.32591509  0.23079122  0.03154913    -0.73700
O192        O  0.27019899  0.17554348  0.03055545    -0.73500
C193        C  0.24203389  0.12146505  0.06720536     0.78300
C194        C  0.36731800  0.11887659  0.06895572     0.78800
C195        C  0.28977072  0.08366000  0.02752530     0.77700
C196        C  0.41694034  0.20944366  0.02920067     0.78100
C197        C  0.37491636  0.25029572  0.06926792     0.79200
C198        C  0.29231023  0.21021984  0.02711319     0.78300
C199        C  0.21753106  0.23757525  0.98299318     0.17100
C200        C  0.21289385  0.21321684  0.99286821    -0.32000
C201        C  0.24345373  0.22570850  0.00118871     0.21500
C202        C  0.27709286  0.26090715  0.99973930     0.03700
C203        C  0.28175114  0.28521692  0.98985345    -0.21700
C204        C  0.25123399  0.27270488  0.98152385     0.12900
S205        S  0.18329974  0.22839810  0.97221984    -0.05300
C206        C  0.21456561  0.27248087  0.96566680    -0.08800
C207        C  0.24982454  0.29276794  0.97155362    -0.25400
S208        S  0.31115611  0.27041520  0.01060977    -0.02600
C209        C  0.28000992  0.22632044  0.01716050    -0.16100
C210        C  0.24488539  0.20574684  0.01119213    -0.14100
H211        H  0.18657997  0.18578965  0.99403266     0.21300
H212        H  0.30802027  0.31270089  0.98871007     0.17400
H213        H  0.27255980  0.32140289  0.96902037     0.19900
H214        H  0.22214001  0.17717050  0.01377013     0.13200
C215        C  0.24213386  0.01635437  0.00025730     0.17100
C216        C  0.21826666  0.99541509  0.99044751    -0.32000
C217        C  0.22850902  0.47880125  0.98425616     0.21500
C218        C  0.26613985  0.48745343  0.98398776     0.03700
C219        C  0.29238947  0.51086681  0.99305188    -0.21700
C220        C  0.27875267  0.02239388  0.00129934     0.12900
S221        S  0.23015993  0.03734224  0.01148397    -0.05300
C222        C  0.27512025  0.05488578  0.01765565    -0.08800
C223        C  0.29782383  0.04438811  0.01133919    -0.25400
S224        S  0.27619148  0.46677988  0.97206125    -0.02600
C225        C  0.22923878  0.44654321  0.96733180    -0.16100
C226        C  0.20730683  0.45559846  0.97469746    -0.14100
H227        H  0.18967417  0.99067687  0.98961884     0.21300
H228        H  0.32188179  0.51796036  0.99283444     0.17400
H229        H  0.32722512  0.05373715  0.01365009     0.19900
H230        H  0.17706697  0.44473324  0.97336636     0.13200
C231        C  0.01308460  0.28024183  0.98374990     0.17100
C232        C  0.49150138  0.28406059  0.99308331    -0.32000
C233        C  0.47883446  0.25736724  0.00275080     0.21500
C234        C  0.48686849  0.22813151  0.00305739     0.03700
C235        C  0.00866483  0.22447069  0.99378066    -0.21700
C236        C  0.02122953  0.25108994  0.98408628     0.12900
S237        S  0.03246548  0.31070800  0.97151480    -0.05300
C238        C  0.05191330  0.28399330  0.96679856    -0.08800
C239        C  0.04316731  0.25283174  0.97430875    -0.25400
S240        S  0.46692890  0.19729221  0.01516386    -0.02600
C241        C  0.44710761  0.22377593  0.01979714    -0.16100
C242        C  0.45638335  0.25529289  0.01241586    -0.14100
H243        H  0.48512022  0.30678247  0.99285829     0.21300
H244        H  0.01502370  0.20173639  0.99400786     0.17400
H245        H  0.05395604  0.23371638  0.97304630     0.19900
H246        H  0.44531639  0.27420398  0.01360502     0.13200
C247        C  0.42196563  0.32145700  0.09577968     0.17100
C248        C  0.43993422  0.34006261  0.10677127    -0.32000
C249        C  0.44379221  0.37577545  0.10910805     0.21500
C250        C  0.42975313  0.39188046  0.10095735     0.03700
C251        C  0.41224597  0.37353039  0.08988323    -0.21700
C252        C  0.40903894  0.33814503  0.08743009     0.12900
S253        S  0.41351115  0.27747288  0.09148185    -0.05300
C254        C  0.39315572  0.28193277  0.07815772    -0.08800
C255        C  0.39295946  0.31580709  0.07716348    -0.25400
S256        S  0.43719761  0.43531876  0.10544295    -0.02600
C257        C  0.46006508  0.43219233  0.11836313    -0.16100
C258        C  0.46169058  0.39900393  0.11905128    -0.14100
H259        H  0.45050158  0.32728076  0.11320797     0.21300
H260        H  0.40178171  0.38638164  0.08343682     0.17400
H261        H  0.38052616  0.32301102  0.06957746     0.19900
H262        H  0.97634633  0.39264705  0.12619152     0.13200
C263        C  0.39082475  0.07380323  0.09571091     0.17100
C264        C  0.39092349  0.05580709  0.10670953    -0.32000
C265        C  0.42503462  0.05773438  0.11007286     0.21500
C266        C  0.45777198  0.07753079  0.10293184     0.03700
C267        C  0.45765166  0.09538029  0.09192500    -0.21700
C268        C  0.42330045  0.09257988  0.08839600     0.12900
S269        S  0.35264937  0.07553273  0.09020293    -0.05300
C270        C  0.38045109  0.10095459  0.07778418    -0.08800
C271        C  0.41735003  0.10778979  0.07796326    -0.25400
S272        S  0.49590848  0.07573703  0.10831107    -0.02600
C273        C  0.46735068  0.04703617  0.12011225    -0.16100
C274        C  0.43031609  0.04001196  0.11998501    -0.14100
H275        H  0.36538957  0.04060700  0.11232885     0.21300
H276        H  0.48311544  0.11030358  0.08625611     0.17400
H277        H  0.43911439  0.12456997  0.07115749     0.19900
H278        H  0.40811587  0.02160325  0.12645483     0.13200
C279        C  0.12951956  0.05397740  0.10925818     0.17100
C280        C  0.16519374  0.06273550  0.10465828    -0.32000
C281        C  0.17467127  0.07771879  0.09268337     0.21500
C282        C  0.14945377  0.08273727  0.08547984     0.03700
C283        C  0.11404973  0.07430213  0.09012926    -0.21700
C284        C  0.10509230  0.06040709  0.10219675     0.12900
S285        S  0.11203319  0.03530907  0.12349026    -0.05300
C286        C  0.07207722  0.03802139  0.12009126    -0.08800
C287        C  0.07255742  0.05166559  0.10834901    -0.25400
S288        S  0.16619741  0.10121439  0.07118930    -0.02600
C289        C  0.20819508  0.10361846  0.07513988    -0.16100
C290        C  0.20861295  0.08991574  0.08680041    -0.14100
H291        H  0.18484922  0.05855009  0.11020175     0.21300
H292        H  0.09454749  0.07889617  0.08464772     0.17400
H293        H  0.05027750  0.05505638  0.10434437     0.19900
H294        H  0.23274506  0.08952219  0.09081836     0.13200
C295        C  0.40885359  0.11737163  0.15890770     0.17100
C296        C  0.43598569  0.11663017  0.15121132    -0.32000
C297        C  0.44124343  0.08519834  0.15228377     0.21500
C298        C  0.42022370  0.05555246  0.16052910     0.03700
C299        C  0.39303569  0.05624815  0.16820582    -0.21700
C300        C  0.38797134  0.08780613  0.16719072     0.12900
S301        S  0.39953421  0.15387684  0.15954130    -0.05300
C302        C  0.36798991  0.12955191  0.17133602    -0.08800
C303        C  0.36403317  0.09430298  0.17416616    -0.25400
S304        S  0.42986686  0.01927202  0.16000849    -0.02600
C305        C  0.46196013  0.04390148  0.14836729    -0.16100
C306        C  0.46576470  0.07905783  0.14548493    -0.14100
H307        H  0.45245667  0.13964483  0.14472413     0.21300
H308        H  0.37664416  0.03329205  0.17471593     0.17400
H309        H  0.34550918  0.07489495  0.18125072     0.19900
H310        H  0.98380736  0.09770346  0.13822852     0.13200
C311        C  0.44670298  0.37477436  0.16043591     0.17100
C312        C  0.44462102  0.34742148  0.16881302    -0.32000
C313        C  0.41280914  0.30982810  0.16808916     0.21500
C314        C  0.38409500  0.29983178  0.15946541     0.03700
C315        C  0.38600293  0.32731804  0.15113356    -0.21700
C316        C  0.41798687  0.36495118  0.15182438     0.12900
S317        S  0.48396118  0.42134316  0.15942360    -0.05300
C318        C  0.46132659  0.42766033  0.14703248    -0.08800
C319        C  0.42583120  0.39539546  0.14427983    -0.25400
S320        S  0.34788778  0.25258644  0.16019987    -0.02600
C321        C  0.37132863  0.24638402  0.17240651    -0.16100
C322        C  0.40586610  0.27933110  0.17542308    -0.14100
H323        H  0.46708807  0.35502319  0.17553789     0.21300
H324        H  0.36372204  0.31962193  0.14432758     0.17400
H325        H  0.40722162  0.39385849  0.13689178     0.19900
H326        H  0.42491182  0.28108905  0.18268958     0.13200
C327        C  0.20059334  0.12044133  0.16027465     0.17100
C328        C  0.17176560  0.11927458  0.15285102    -0.32000
C329        C  0.13498754  0.08610315  0.15340824     0.21500
C330        C  0.12714235  0.05547776  0.16103365     0.03700
C331        C  0.15582180  0.05684646  0.16855593    -0.21700
C332        C  0.19260555  0.08987561  0.16793790     0.12900
S333        S  0.24714128  0.15801691  0.16102197    -0.05300
C334        C  0.25568536  0.13252843  0.17193125    -0.08800
C335        C  0.22410049  0.09651141  0.17454740    -0.25400
S336        S  0.08143403  0.01680366  0.15974868    -0.02600
C337        C  0.07311185  0.04164747  0.14855829    -0.16100
C338        C  0.10379821  0.07862745  0.14641910    -0.14100
H339        H  0.17783522  0.14294713  0.14679272     0.21300
H340        H  0.14988566  0.03296592  0.17449663     0.17400
H341        H  0.22395817  0.07656931  0.18120072     0.19900
H342        H  0.10392826  0.09808861  0.13956932     0.13200
C343        C  0.39904446  0.05959883  0.67197081     0.17100
C344        C  0.37998580  0.07525511  0.66592873    -0.32000
C345        C  0.37970534  0.07458220  0.65304478     0.21500
C346        C  0.39722054  0.05890930  0.64636397     0.03700
C347        C  0.41560116  0.04255389  0.65240922    -0.21700
C348        C  0.41615715  0.04352023  0.66528735     0.12900
S349        S  0.40517733  0.05983361  0.68756758    -0.05300
C350        C  0.43100724  0.03796741  0.68495378    -0.08800
C351        C  0.43421372  0.03089459  0.67267604    -0.25400
S352        S  0.39651323  0.06426071  0.63075965    -0.02600
C353        C  0.37274526  0.08824989  0.63336510    -0.16100
C354        C  0.36515284  0.09083765  0.64563677    -0.14100
H355        H  0.36696799  0.08845762  0.67101731     0.21300
H356        H  0.42990944  0.03069635  0.64731359     0.17400
H357        H  0.44994861  0.01800564  0.66925648     0.19900
H358        H  0.35147124  0.10582895  0.64905306     0.13200
C359        C  0.44182056  0.33696125  0.64620638     0.17100
C360        C  0.45199116  0.37132734  0.65220771    -0.32000
C361        C  0.45325949  0.37144465  0.66509867     0.21500
C362        C  0.44514058  0.33914222  0.67185358     0.03700
C363        C  0.43539218  0.30479054  0.66583361    -0.21700
C364        C  0.43388563  0.30460012  0.65290293     0.12900
S365        S  0.43520444  0.32980873  0.63065091    -0.05300
C366        C  0.42094329  0.28245124  0.63320330    -0.08800
C367        C  0.42251058  0.27349932  0.64547773    -0.25400
S368        S  0.44788754  0.34577248  0.68751857    -0.02600
C369        C  0.46036384  0.39264012  0.68481374    -0.16100
C370        C  0.46190050  0.40192313  0.67243958    -0.14100
H371        H  0.45784320  0.39666928  0.64707636     0.21300
H372        H  0.42855066  0.27917375  0.67097986     0.17400
H373        H  0.41337362  0.24497800  0.64891165     0.19900
H374        H  0.46918719  0.42987949  0.66893002     0.13200
C375        C  0.17380688  0.10885333  0.67227764     0.17100
C376        C  0.20978171  0.12914550  0.66663453    -0.32000
C377        C  0.21081962  0.12819598  0.65374150     0.21500
C378        C  0.17772098  0.10853659  0.64673512     0.03700
C379        C  0.14179574  0.08908084  0.65235554    -0.21700
C380        C  0.14079474  0.08953742  0.66522331     0.12900
S381        S  0.16609399  0.10345617  0.68783075    -0.05300
C382        C  0.11794166  0.07475353  0.68468944    -0.08800
C383        C  0.10879680  0.07031038  0.67227063    -0.25400
S384        S  0.18526685  0.10819010  0.63129926    -0.02600
C385        C  0.23357859  0.13458622  0.63432990    -0.16100
C386        C  0.24294932  0.14356812  0.64665027    -0.14100
H387        H  0.23578736  0.14384456  0.67203487     0.21300
H388        H  0.11586877  0.07316298  0.64697425     0.17400
H389        H  0.08016168  0.05292432  0.66854647     0.19900
H390        H  0.27181427  0.15902208  0.65030337     0.13200
C391        C  0.25247958  0.45488803  0.54662916     0.17100
C392        C  0.28036125  0.48434212  0.55399922    -0.32000
C393        C  0.26620928  0.01104953  0.55947181     0.21500
C394        C  0.22907601  0.99146790  0.56398319     0.03700
C395        C  0.20300419  0.46574944  0.55448840    -0.21700
C396        C  0.21464426  0.44566720  0.54699465     0.12900
S397        S  0.26075638  0.42721235  0.53682401    -0.05300
C398        C  0.21276457  0.40302275  0.53330312    -0.08800
C399        C  0.19161612  0.41553947  0.53944764    -0.25400
S400        S  0.22208609  0.01281254  0.57644018    -0.02600
C401        C  0.26996318  0.04785663  0.57572161    -0.16100
C402        C  0.28980349  0.04315526  0.56623741    -0.14100
H403        H  0.30582531  0.01347252  0.54568058     0.21300
H404        H  0.17346941  0.45858635  0.55466104     0.17400
H405        H  0.16110322  0.40341433  0.53835616     0.19900
H406        H  0.31997424  0.06247169  0.56434309     0.13200
C407        C  0.05701056  0.28771388  0.54826929     0.17100
C408        C  0.03429131  0.29008717  0.55740319    -0.32000
C409        C  0.50824330  0.25585061  0.56341458     0.21500
C410        C  0.50468394  0.22096897  0.56046742     0.03700
C411        C  0.02680281  0.21863410  0.55122059    -0.21700
C412        C  0.05318229  0.25278527  0.54517305     0.12900
S413        S  0.09178077  0.32618488  0.54041617    -0.05300
C414        C  0.10078466  0.29493075  0.53268229    -0.08800
C415        C  0.07835383  0.25675278  0.53612472    -0.25400
S416        S  0.47024795  0.18283584  0.56867359    -0.02600
C417        C  0.46018008  0.21425800  0.57595264    -0.16100
C418        C  0.48286860  0.25222081  0.57228154    -0.14100
H419        H  0.03720364  0.31727503  0.55977537     0.21300
H420        H  0.02398177  0.19146247  0.54887217     0.17400
H421        H  0.08134531  0.23364097  0.53254410     0.19900
H422        H  0.48032395  0.27575798  0.57569729     0.13200
C423        C  0.21688386  0.25338896  0.54807899     0.17100
C424        C  0.21558443  0.22799580  0.55708823    -0.32000
C425        C  0.25016413  0.23691662  0.56275719     0.21500
C426        C  0.28451236  0.26973982  0.55965022     0.03700
C427        C  0.28588066  0.29495370  0.55053892    -0.21700
C428        C  0.25132347  0.28590940  0.54480124     0.12900
S429        S  0.17780097  0.24867931  0.54062117    -0.05300
C430        C  0.20826733  0.29036706  0.53278919    -0.08800
C431        C  0.24655376  0.30722472  0.53593620    -0.25400
S432        S  0.32322579  0.27548239  0.56768088    -0.02600
C433        C  0.29292373  0.23289241  0.57518156    -0.16100
C434        C  0.25479684  0.21563202  0.57164099    -0.14100
H435        H  0.18876534  0.20256786  0.55963257     0.21300
H436        H  0.31264676  0.32054877  0.54807167     0.17400
H437        H  0.26932615  0.33420941  0.53225041     0.19900
H438        H  0.23175075  0.18868222  0.57525932     0.13200
C439        C  0.25925285  0.03457505  0.49311977     0.17100
C440        C  0.23664935  0.50725698  0.50286744    -0.32000
C441        C  0.23276199  0.47087680  0.50181636     0.21500
C442        C  0.25341786  0.46382868  0.49323948     0.03700
C443        C  0.27766704  0.99120190  0.48447093    -0.21700
C444        C  0.28123709  0.02738706  0.48513276     0.12900
S445        S  0.26710355  0.08015951  0.49215076    -0.05300
C446        C  0.29944936  0.08908378  0.48061863    -0.08800
C447        C  0.30473097  0.05872689  0.47808415    -0.25400
S448        S  0.24480429  0.41782417  0.49352696    -0.02600
C449        C  0.21359922  0.40804462  0.50551702    -0.16100
C450        C  0.20955726  0.43888967  0.50875643    -0.14100
H451        H  0.22026763  0.51251929  0.50955402     0.21300
H452        H  0.29497272  0.98585824  0.47819941     0.17400
H453        H  0.32404374  0.05920743  0.47118482     0.19900
H454        H  0.19078580  0.43814202  0.51589087     0.13200
C455        C  0.04279049  0.25004189  0.49232275     0.17100
C456        C  0.01375306  0.22331787  0.48448240    -0.32000
C457        C  0.47784867  0.22015607  0.48501484     0.21500
C458        C  0.47013369  0.24062907  0.49348084     0.03700
C459        C  0.49885496  0.26672837  0.50149702    -0.21700
C460        C  0.03530320  0.27115390  0.50060173     0.12900
S461        S  0.08894830  0.25943115  0.49294626    -0.05300
C462        C  0.09798836  0.29156754  0.50466446    -0.08800
C463        C  0.06684275  0.29523161  0.50755458    -0.25400
S464        S  0.42429792  0.23197435  0.49274224    -0.02600
C465        C  0.41553844  0.20114330  0.48065987    -0.16100
C466        C  0.44651588  0.19699622  0.47782564    -0.14100
H467        H  0.01938132  0.20678560  0.47794906     0.21300
H468        H  0.49301207  0.28283745  0.50813678     0.17400
H469        H  0.06696246  0.31412607  0.51455468     0.19900
H470        H  0.44653413  0.17849716  0.47072165     0.13200
C471        C  0.25208194  0.28005753  0.49144931     0.17100
C472        C  0.27761180  0.27840478  0.48315550    -0.32000
C473        C  0.28192417  0.24620356  0.48376147     0.21500
C474        C  0.26173199  0.21699621  0.49222329     0.03700
C475        C  0.23608046  0.21853788  0.50042448    -0.21700
C476        C  0.23184731  0.25067535  0.49984470     0.12900
S477        S  0.24338378  0.31699631  0.49256700    -0.05300
C478        C  0.21279555  0.29290616  0.50464393    -0.08800
C479        C  0.20905080  0.25765175  0.50729643    -0.25400
S480        S  0.27084365  0.18038116  0.49150629    -0.02600
C481        C  0.30170866  0.20409321  0.47950507    -0.16100
C482        C  0.30501323  0.23901817  0.47646339    -0.14100
H483        H  0.29353834  0.30125874  0.47657108     0.21300
H484        H  0.22026648  0.19576026  0.50704450     0.17400
H485        H  0.19087182  0.23814813  0.51441457     0.19900
H486        H  0.32304696  0.25796418  0.46920099     0.13200
C487        C  0.38835990  0.43237088  0.88345691     0.17100
C488        C  0.37101732  0.41737430  0.89486064    -0.32000
C489        C  0.33506294  0.41291123  0.89697419     0.21500
C490        C  0.31702566  0.42247719  0.88804162     0.03700
C491        C  0.33460745  0.43794888  0.87670103    -0.21700
C492        C  0.37075949  0.44283177  0.87465459     0.12900
S493        S  0.43208282  0.44052782  0.87923904    -0.05300
C494        C  0.42707819  0.45884740  0.86550114    -0.08800
C495        C  0.39296536  0.45840709  0.86436814    -0.25400
S496        S  0.27269882  0.41306015  0.89208869    -0.02600
C497        C  0.27868596  0.39661323  0.90605667    -0.16100
C498        C  0.31337559  0.39848010  0.90743452    -0.14100
H499        H  0.38496048  0.40958900  0.90177793     0.21300
H500        H  0.32069416  0.44575050  0.86977828     0.17400
H501        H  0.38918847  0.96602286  0.85659104     0.19900
H502        H  0.32166097  0.38859392  0.91544940     0.13200
C503        C  0.06128708  0.42961595  0.87400400     0.17100
C504        C  0.07123632  0.40370250  0.87857338    -0.32000
C505        C  0.08490293  0.40895287  0.89068619     0.21500
C506        C  0.08840498  0.43850471  0.89799020     0.03700
C507        C  0.07913415  0.46489710  0.89331836    -0.21700
C508        C  0.06565027  0.45974505  0.88115913     0.12900
S509        S  0.04195109  0.42681374  0.85983886    -0.05300
C510        C  0.04034344  0.46730397  0.86340880    -0.08800
C511        C  0.05425407  0.48170690  0.87508789    -0.25400
S512        S  0.10464367  0.43908798  0.91257703    -0.02600
C513        C  0.10738775  0.39952082  0.90866586    -0.16100
C514        C  0.09595793  0.38672051  0.89672376    -0.14100
H515        H  0.06803775  0.38020847  0.87298884     0.21300
H516        H  0.08191791  0.48814677  0.89893760     0.17400
H517        H  0.05549704  0.50666772  0.87908597     0.19900
H518        H  0.09587242  0.36240661  0.89264334     0.13200
C519        C  0.07826128  0.13494848  0.87500136     0.17100
C520        C  0.10545370  0.17044901  0.88005338    -0.32000
C521        C  0.09587317  0.18146161  0.89103026     0.21500
C522        C  0.06106723  0.15800574  0.89684010     0.03700
C523        C  0.03367465  0.12275432  0.89169559    -0.21700
C524        C  0.04306942  0.11197750  0.88064813     0.12900
S525        S  0.08470534  0.11581269  0.86193776    -0.05300
C526        C  0.03893000  0.07716150  0.86391228    -0.08800
C527        C  0.02039651  0.07874849  0.87431525    -0.25400
S528        S  0.05549649  0.17606147  0.91031067    -0.02600
C529        C  0.10014979  0.21597217  0.90791941    -0.16100
C530        C  0.11824345  0.21502371  0.89728228    -0.14100
H531        H  0.13287274  0.18861928  0.87565019     0.21300
H532        H  0.00632220  0.10447433  0.89612483     0.17400
H533        H  0.99192355  0.05651202  0.87713100     0.19900
H534        H  0.14637202  0.23763727  0.89433543     0.13200
C535        C  0.33672064  0.40237856  0.75785322     0.17100
C536        C  0.31204352  0.37715893  0.76691822    -0.32000
C537        C  0.28609738  0.38565730  0.77232946     0.21500
C538        C  0.28421713  0.41740248  0.76869957     0.03700
C539        C  0.30897832  0.44268754  0.75967035    -0.21700
C540        C  0.33540513  0.43456587  0.75442706     0.12900
S541        S  0.37090837  0.39768899  0.75039641    -0.05300
C542        C  0.38415159  0.43997904  0.74275262    -0.08800
C543        C  0.36261333  0.45631221  0.74579603    -0.25400
S544        S  0.24949229  0.42164775  0.77594037    -0.02600
C545        C  0.23830103  0.38097061  0.78419202    -0.16100
C546        C  0.25983927  0.36468355  0.78129856    -0.14100
H547        H  0.31319091  0.35218913  0.76968642     0.21300
H548        H  0.30779500  0.46763895  0.75689025     0.17400
H549        H  0.36697286  0.48296337  0.74201865     0.19900
H550        H  0.25560755  0.33830589  0.78526037     0.13200
C551        C  0.10400763  0.45395402  0.76013073     0.17100
C552        C  0.12741503  0.45494844  0.76978701    -0.32000
C553        C  0.11942487  0.41958444  0.77473643     0.21500
C554        C  0.08944969  0.38496381  0.77029377     0.03700
C555        C  0.06575660  0.38407034  0.76086598    -0.21700
C556        C  0.07381784  0.41919701  0.75589981     0.12900
S557        S  0.10926246  0.49323556  0.75248451    -0.05300
C558        C  0.07013288  0.46217217  0.74365531    -0.08800
C559        C  0.05424931  0.42373524  0.74653033    -0.25400
S560        S  0.08606854  0.34503982  0.77664228    -0.02600
C561        C  0.12511396  0.37512042  0.78547573    -0.16100
C562        C  0.13997093  0.41403939  0.78363023    -0.14100
H563        H  0.15117781  0.48192908  0.77311384     0.21300
H564        H  0.04252275  0.35705503  0.75734925     0.17400
H565        H  0.02950300  0.40025271  0.74201389     0.19900
H566        H  0.16542731  0.43676666  0.78808740     0.13200
C567        C  0.08357258  0.21548257  0.77053790     0.17100
C568        C  0.05428014  0.18364545  0.76430360    -0.32000
C569        C  0.06493462  0.16808069  0.75472785     0.21500
C570        C  0.10303343  0.18367089  0.75146122     0.03700
C571        C  0.13222337  0.21602198  0.75749099    -0.21700
C572        C  0.12158707  0.23135388  0.76711089     0.12900
S573        S  0.07682370  0.23756948  0.78276217    -0.05300
C574        C  0.12571330  0.26807428  0.78324978    -0.08800
C575        C  0.14589107  0.26196287  0.77429091    -0.25400
S576        S  0.11040989  0.15892798  0.74029762    -0.02600
C577        C  0.06162103  0.12725459  0.73997779    -0.16100
C578        C  0.04090034  0.13591218  0.74802324    -0.14100
H579        H  0.02458996  0.17103334  0.76697928     0.21300
H580        H  0.16199409  0.22811511  0.75500229     0.17400
H581        H  0.17671417  0.27887822  0.77319265     0.19900
H582        H  0.01017374  0.11859359  0.74930818     0.13200
C583        C  0.08773614  0.45524220  0.82839103     0.17100
C584        C  0.11969493  0.45228319  0.82560313    -0.32000
C585        C  0.11294971  0.41704574  0.82102521     0.21500
C586        C  0.07600281  0.38615522  0.81929134     0.03700
C587        C  0.04407641  0.38919021  0.82200803    -0.21700
C588        C  0.05079498  0.42442805  0.82655103     0.12900
S589        S  0.08983552  0.49446346  0.83491184    -0.05300
C590        C  0.04047566  0.46895562  0.83525960    -0.08800
C591        C  0.02348104  0.43236656  0.83030317    -0.25400
S592        S  0.07375247  0.34646605  0.81313072    -0.02600
C593        C  0.12305018  0.37172024  0.81284140    -0.16100
C594        C  0.14015884  0.40887008  0.81734702    -0.14100
H595        H  0.14854711  0.47630253  0.82702958     0.21300
H596        H  0.01522710  0.36508764  0.82065250     0.17400
H597        H  0.99295768  0.41171577  0.83035500     0.19900
H598        H  0.17070314  0.42942706  0.81724101     0.13200
C599        C  0.35413859  0.41152644  0.83175292     0.17100
C600        C  0.31621005  0.38171618  0.82973522    -0.32000
C601        C  0.29216994  0.39023576  0.82297374     0.21500
C602        C  0.30529202  0.42700484  0.81850895     0.03700
C603        C  0.34309015  0.45701016  0.82068745    -0.21700
C604        C  0.36726538  0.44834273  0.82733494     0.12900
S605        S  0.38752261  0.40683138  0.83978269    -0.05300
C606        C  0.41942537  0.45514651  0.83736857    -0.08800
C607        C  0.40492666  0.47350455  0.83044982    -0.25400
S608        S  0.27262685  0.43082104  0.80974738    -0.02600
C609        C  0.24118169  0.38223815  0.81195247    -0.16100
C610        C  0.25513139  0.36450760  0.81938706    -0.14100
H611        H  0.30602872  0.35293534  0.83314568     0.21300
H612        H  0.35340178  0.48569437  0.81715706     0.17400
H613        H  0.42340538  0.00516246  0.83051042     0.19900
H614        H  0.23988125  0.33399661  0.82140160     0.13200
C615        C  0.08354506  0.20566333  0.82395438     0.17100
C616        C  0.05869092  0.17734000  0.83237367    -0.32000
C617        C  0.05246116  0.14000508  0.83114819     0.21500
C618        C  0.06987027  0.13113463  0.82189726     0.03700
C619        C  0.09420066  0.15926659  0.81337997    -0.21700
C620        C  0.10080994  0.19665976  0.81469368     0.12900
S621        S  0.09581028  0.25297818  0.82396471    -0.05300
C622        C  0.12415556  0.26067494  0.81124800    -0.08800
C623        C  0.12425304  0.22800078  0.80748431    -0.25400
S624        S  0.06079959  0.08497457  0.82250905    -0.02600
C625        C  0.03425285  0.07769105  0.83562712    -0.16100
C626        C  0.03126212  0.10921792  0.83885476    -0.14100
H627        H  0.04541720  0.18427951  0.83971460     0.21300
H628        H  0.10808858  0.15251762  0.80619147     0.17400
H629        H  0.14053500  0.22707184  0.79979648     0.19900
H630        H  0.01583327  0.11022880  0.84678298     0.13200
C631        C  0.40824574  0.28252467  0.21707753     0.17100
C632        C  0.43065042  0.30319658  0.22718689    -0.32000
C633        C  0.42751887  0.33396137  0.23137012     0.21500
C634        C  0.40306798  0.34371242  0.22578185     0.03700
C635        C  0.38111914  0.32343102  0.21550872    -0.21700
C636        C  0.38431424  0.29264327  0.21129594     0.12900
S637        S  0.40649199  0.24298019  0.21113252    -0.05300
C638        C  0.37370500  0.24038293  0.20062158    -0.08800
C639        C  0.36444197  0.26853928  0.20172920    -0.25400
S640        S  0.40286423  0.38152419  0.23246659    -0.02600
C641        C  0.43655461  0.38453226  0.24272913    -0.16100
C642        C  0.44707139  0.35749798  0.24103953    -0.14100
H643        H  0.44937709  0.29535532  0.23168541     0.21300
H644        H  0.36211455  0.33103704  0.21108631     0.17400
H645        H  0.34350463  0.27042954  0.19611073     0.19900
H646        H  0.46813645  0.35541445  0.24652890     0.13200
C647        C  0.37211378  0.08944474  0.21504674     0.17100
C648        C  0.37025007  0.06520895  0.22457832    -0.32000
C649        C  0.40490891  0.07172600  0.22952576     0.21500
C650        C  0.43987777  0.10109077  0.22515982     0.03700
C651        C  0.44174971  0.12488475  0.21545681    -0.21700
C652        C  0.40706611  0.11838821  0.21050935     0.12900
S653        S  0.33332848  0.08792492  0.20850844    -0.05300
C654        C  0.36433831  0.12626835  0.19944302    -0.08800
C655        C  0.40277448  0.13951092  0.20143145    -0.25400
S656        S  0.47862574  0.10494091  0.23260716    -0.02600
C657        C  0.44748595  0.06618378  0.24158960    -0.16100
C658        C  0.40906323  0.05141444  0.23890064    -0.14100
H659        H  0.34294474  0.04266405  0.22812538     0.21300
H660        H  0.46904556  0.14783112  0.21204414     0.17400
H661        H  0.42617708  0.16417012  0.19685751     0.19900
H662        H  0.38545938  0.02699966  0.24350168     0.13200
C663        C  0.16795487  0.06542669  0.22940720     0.17100
C664        C  0.19822741  0.06679567  0.22297653    -0.32000
C665        C  0.21669726  0.09571365  0.21413460     0.21500
C666        C  0.20519145  0.12173268  0.21159155     0.03700
C667        C  0.17490198  0.12039072  0.21804881    -0.21700
C668        C  0.15688948  0.09190366  0.22708548     0.12900
S669        S  0.14216771  0.03268377  0.24055819    -0.05300
C670        C  0.11677615  0.05544501  0.24232672    -0.08800
C671        C  0.12758237  0.08645008  0.23455372    -0.25400
S672        S  0.23163632  0.15479767  0.20054287    -0.02600
C673        C  0.25852319  0.13344737  0.19955673    -0.16100
C674        C  0.24753294  0.10250750  0.20728894    -0.14100
H675        H  0.20727137  0.04651015  0.22487821     0.21300
H676        H  0.16609186  0.14092671  0.21622389     0.17400
H677        H  0.11435660  0.10370124  0.23427382     0.19900
H678        H  0.26137093  0.08598311  0.20787016     0.13200
C679        C  0.07452817  0.39990458  0.31338381     0.17100
C680        C  0.08631785  0.37726701  0.31944265    -0.32000
C681        C  0.08890435  0.37960904  0.33234259     0.21500
C682        C  0.08004617  0.40308483  0.33895873     0.03700
C683        C  0.06796726  0.42531858  0.33292715    -0.21700
C684        C  0.06564818  0.42319933  0.32008004     0.12900
S685        S  0.06987879  0.40224174  0.29774416    -0.05300
C686        C  0.05559060  0.43474157  0.30042414    -0.08800
C687        C  0.05498761  0.44313647  0.31274455    -0.25400
S688        S  0.08750824  0.40388133  0.35446618    -0.02600
C689        C  0.10337129  0.37269344  0.35199692    -0.16100
C690        C  0.10183753  0.36172617  0.33980966    -0.14100
H691        H  0.09372893  0.35919567  0.31435731     0.21300
H692        H  0.06133570  0.44400749  0.33799594     0.17400
H693        H  0.04685630  0.46283775  0.31622867     0.19900
H694        H  0.11155415  0.34312040  0.33648852     0.13200
C695        C  0.08049102  0.16603208  0.33975816     0.17100
C696        C  0.05332251  0.13402356  0.33308018    -0.32000
C697        C  0.05780996  0.13506325  0.32025958     0.21500
C698        C  0.08775298  0.16630667  0.31428614     0.03700
C699        C  0.11476399  0.19822555  0.32094895    -0.21700
C700        C  0.11044831  0.19709347  0.33373261     0.12900
S701        S  0.07971270  0.17186775  0.35534687    -0.05300
C702        C  0.12006744  0.21672005  0.35356596    -0.08800
C703        C  0.13337457  0.22576639  0.34158751    -0.25400
S704        S  0.08947939  0.16081724  0.29875597    -0.02600
C705        C  0.04972285  0.11562789  0.30036673    -0.16100
C706        C  0.03564797  0.10618809  0.31229455    -0.14100
H707        H  0.02983937  0.10940196  0.33764706     0.21300
H708        H  0.13835588  0.22277578  0.31639021     0.17400
H709        H  0.15755473  0.25306357  0.33862297     0.19900
H710        H  0.01171888  0.07856374  0.31513977     0.13200
C711        C  0.34213332  0.43471597  0.34039030     0.17100
C712        C  0.37763352  0.44986073  0.33460326    -0.32000
C713        C  0.37817743  0.45181639  0.32172782     0.21500
C714        C  0.34520039  0.43989584  0.31486338     0.03700
C715        C  0.30988070  0.42551510  0.32065967    -0.21700
C716        C  0.30923228  0.42300529  0.33350726     0.12900
S717        S  0.33442314  0.42623490  0.35583875    -0.05300
C718        C  0.28633468  0.40612230  0.35286305    -0.08800
C719        C  0.27731421  0.40708560  0.34062211    -0.25400
S720        S  0.35179710  0.44292168  0.29929455    -0.02600
C721        C  0.39948187  0.46034251  0.30211322    -0.16100
C722        C  0.40940838  0.46376140  0.31445780    -0.14100
H723        H  0.40345903  0.45855922  0.33985504     0.21300
H724        H  0.28386101  0.41556785  0.31538099     0.17400
H725        H  0.24855450  0.39498022  0.33700221     0.19900
H726        H  0.43798309  0.47387597  0.31794973     0.13200
C727        C  0.25853366  0.03692364  0.43962606     0.17100
C728        C  0.23013496  0.00750961  0.43234264    -0.32000
C729        C  0.23667539  0.49186531  0.42476740     0.21500
C730        C  0.27443757  0.50102662  0.42395986     0.03700
C731        C  0.30776116  0.02769447  0.43057137    -0.21700
C732        C  0.29650998  0.04697651  0.43864791     0.12900
S733        S  0.25079945  0.06407015  0.44987212    -0.05300
C734        C  0.29925876  0.08950522  0.45272267    -0.08800
C735        C  0.32005613  0.07738477  0.44610156    -0.25400
S736        S  0.28207933  0.47454601  0.41356003    -0.02600
C737        C  0.23391636  0.45097777  0.41017245    -0.16100
C738        C  0.21324486  0.46330622  0.41675683    -0.14100
H739        H  0.20050625  0.99987935  0.43296253     0.21300
H740        H  0.33744799  0.03556374  0.42987762     0.17400
H741        H  0.35080440  0.09036670  0.44664916     0.19900
H742        H  0.18261799  0.45125111  0.41598888     0.13200
C743        C  0.45870968  0.20309876  0.43812478     0.17100
C744        C  0.48282639  0.20087922  0.42948367    -0.32000
C745        C  0.50986094  0.23508689  0.42368177     0.21500
C746        C  0.01150114  0.26952456  0.42601699     0.03700
C747        C  0.48896022  0.27210839  0.43511729    -0.21700
C748        C  0.46213742  0.23803759  0.44096135     0.12900
S749        S  0.42242078  0.16464152  0.44555041    -0.05300
C750        C  0.41275375  0.19627915  0.45273418    -0.08800
C751        C  0.43588934  0.23431695  0.44946259    -0.25400
S752        S  0.04490123  0.30750264  0.41767476    -0.02600
C753        C  0.05672256  0.27674347  0.41096078    -0.16100
C754        C  0.03542434  0.23893309  0.41490938    -0.14100
H755        H  0.48029704  0.17372377  0.42727258     0.21300
H756        H  0.98958647  0.29878293  0.43673885     0.17400
H757        H  0.43271327  0.25759108  0.45279484     0.19900
H758        H  0.03907417  0.21582284  0.41172906     0.13200
C759        C  0.27854667  0.26316484  0.42065249     0.17100
C760        C  0.30812122  0.26189790  0.42679337    -0.32000
C761        C  0.29782158  0.23422430  0.43606268     0.21500
C762        C  0.25976514  0.20892006  0.43910920     0.03700
C763        C  0.23015125  0.20966077  0.43278379    -0.21700
C764        C  0.24046177  0.23734241  0.42350063     0.12900
S765        S  0.28520887  0.29613741  0.40967701    -0.05300
C766        C  0.23613467  0.27474404  0.40882290    -0.08800
C767        C  0.21592227  0.24352810  0.41661670    -0.25400
S768        S  0.25330982  0.17823452  0.45088528    -0.02600
C769        C  0.30232887  0.19965728  0.45161636    -0.16100
C770        C  0.32240828  0.22865940  0.44312686    -0.14100
H771        H  0.33787339  0.28198183  0.42457277     0.21300
H772        H  0.20043116  0.18990508  0.43510970     0.17400
H773        H  0.18503881  0.22715167  0.41751442     0.19900
H774        H  0.35331305  0.24477682  0.44221976     0.13200
Zn775      Zn  0.16286212  0.82501148  0.36410597     1.49700
Zn776      Zn  0.22120045  0.85157112  0.38604132     1.49400
Zn777      Zn  0.14594224  0.85852411  0.38709534     1.49100
Zn778      Zn  0.13688080  0.77327201  0.38745565     1.49500
O779        O  0.16678429  0.82708030  0.38155077    -1.83000
O780        O  0.21173089  0.84136739  0.35628492    -0.73600
O781        O  0.23801704  0.89918757  0.39670877    -0.73400
O782        O  0.12874868  0.88043256  0.37285491    -0.73000
O783        O  0.25570060  0.86448383  0.37101150    -0.73600
O784        O  0.14448647  0.85658387  0.35727602    -0.73200
O785        O  0.18505620  0.90209210  0.39767176    -0.73800
O786        O  0.09561905  0.76817634  0.39882169    -0.73200
O787        O  0.22812411  0.81401540  0.39601719    -0.74000
O788        O  0.10157049  0.82593045  0.39824146    -0.73400
O789        O  0.17090629  0.76021887  0.39727584    -0.73800
O790        O  0.11174143  0.73381704  0.37349982    -0.73700
O791        O  0.12766920  0.77403013  0.35781750    -0.73500
C792        C  0.24624940  0.85697810  0.35973292     0.78300
C793        C  0.21975308  0.91465321  0.40074989     0.78800
C794        C  0.13107514  0.87632956  0.36131523     0.77700
C795        C  0.08531145  0.79148845  0.40221754     0.78100
C796        C  0.20656045  0.77964098  0.39980322     0.79200
C797        C  0.11049677  0.74025628  0.36208543     0.78300
Zn798      Zn  0.03648735  0.55478144  0.26455692     1.49700
Zn799      Zn  0.00138830  0.00306206  0.28755750     1.49400
Zn800      Zn  0.44777387  0.97848770  0.26486762     1.49100
Zn801      Zn  0.02503880  0.97352936  0.26584680     1.49500
O802        O  0.00101918  0.00281552  0.27022319    -1.83000
O803        O  0.05767100  0.59478719  0.27832771    -0.73600
O804        O  0.45249230  0.96806115  0.29420434    -0.73400
O805        O  0.44503198  0.51521019  0.25540933    -0.73000
O806        O  0.04648171  0.55512266  0.29388073    -0.73600
O807        O  0.50386097  0.56601620  0.25348552    -0.73200
O808        O  0.41052760  0.95572284  0.27929819    -0.73800
O809        O  0.48731817  0.92725985  0.25584216    -0.73200
O810        O  0.03753334  0.99096267  0.29527551    -0.74000
O811        O  0.43679986  0.93425343  0.25394123    -0.73400
O812        O  0.04572250  0.95801460  0.28073276    -0.73800
O813        O  0.07440177  0.50334016  0.25469204    -0.73700
O814        O  0.07958717  0.56077089  0.25424925    -0.73500
C815        C  0.06044621  0.58874547  0.28966901     0.78300
C816        C  0.41834483  0.95250469  0.29043194     0.78800
C817        C  0.46834875  0.54815867  0.25085789     0.77700
C818        C  0.45421305  0.91660986  0.25145653     0.78100
C819        C  0.05010854  0.96985104  0.29181467     0.79200
C820        C  0.09072784  0.53806791  0.25098136     0.78300
C821        C  0.16861578  0.83820661  0.81234977     0.46600
H822        H  0.16816225  0.83773811  0.82256076    -0.02400
C823        C  0.16985143  0.83984885  0.78835823     0.46600
H824        H  0.17018206  0.84062771  0.77813356    -0.02400
C825        C  0.14837792  0.85783054  0.80658444    -0.16100
C826        C  0.20944127  0.86011774  0.80673380    -0.15900
C827        C  0.14861594  0.79777979  0.80637283    -0.16300
C828        C  0.14931869  0.85855498  0.79401703    -0.16200
C829        C  0.20959802  0.86054108  0.79413339    -0.15800
C830        C  0.14954811  0.79926059  0.79374383    -0.16100
C831        C  0.49598530  0.49853635  0.83746703     0.46600
H832        H  0.49418578  0.49758479  0.82726720    -0.02400
C833        C  0.50021792  0.50042587  0.86132392     0.46600
H834        H  0.50186661  0.50162416  0.87149044    -0.02400
C835        C  0.01531267  0.53984774  0.84283048    -0.16100
C836        C  0.46255090  0.97753738  0.84439748    -0.15900
C837        C  0.02607646  0.98522571  0.84342978    -0.16300
C838        C  0.01745933  0.54032851  0.85544025    -0.16200
C839        C  0.46493563  0.97835220  0.85702826    -0.15800
C840        C  0.02820601  0.98643948  0.85604833    -0.16100
C841        C  0.16833731  0.83094068  0.53008396     0.46600
H842        H  0.16738006  0.83074397  0.54030516    -0.02400
C843        C  0.17043308  0.83085941  0.50615565     0.46600
H844        H  0.17115137  0.83097642  0.49594680    -0.02400
C845        C  0.19109885  0.87123952  0.52455027    -0.16100
C846        C  0.18632369  0.80902892  0.52490682    -0.15900
C847        C  0.12904103  0.81275430  0.52408771    -0.16300
C848        C  0.19223333  0.87154142  0.51191112    -0.16200
C849        C  0.18795845  0.80894675  0.51227197    -0.15800
C850        C  0.12936133  0.81220255  0.51147239    -0.16100
C851        C  0.33234604  0.66350049  0.45507914     0.46600
H852        H  0.33095459  0.66144116  0.44486936    -0.02400
C853        C  0.33518631  0.66775288  0.47899021     0.46600
H854        H  0.33654040  0.66952175  0.48918378    -0.02400
C855        C  0.31406876  0.62459143  0.46142403    -0.16100
C856        C  0.37295444  0.68594729  0.46011889    -0.15900
C857        C  0.31179742  0.68264807  0.46037998    -0.16300
C858        C  0.31542517  0.62607111  0.47402252    -0.16200
C859        C  0.37516547  0.68856079  0.47271729    -0.15800
C860        C  0.31306584  0.68525149  0.47297788    -0.16100
Zn861      Zn  0.36841211  0.71995517  0.59771903     1.49700
Zn862      Zn  0.35974401  0.63606781  0.59804256     1.49400
Zn863      Zn  0.33667679  0.66603249  0.62017945     1.49100
Zn864      Zn  0.28361919  0.64211316  0.59765195     1.49500
O865        O  0.33716112  0.66625092  0.60281409    -1.83000
O866        O  0.41195172  0.72541713  0.58729810    -0.73600
O867        O  0.37100602  0.61223045  0.61272916    -0.73400
O868        O  0.37792094  0.71336663  0.62727401    -0.73000
O869        O  0.40765955  0.66851699  0.58823443    -0.73600
O870        O  0.39192316  0.75672303  0.61264474    -0.73200
O871        O  0.34115727  0.62458737  0.62732580    -0.73800
O872        O  0.24717859  0.63028594  0.61220164    -0.73200
O873        O  0.32299869  0.59333768  0.58704133    -0.74000
O874        O  0.29003589  0.66027963  0.62694704    -0.73400
O875        O  0.26881735  0.59418038  0.58768866    -0.73800
O876        O  0.27843102  0.67896473  0.58655418    -0.73700
O877        O  0.33572723  0.73307977  0.58688311    -0.73500
C878        C  0.42403462  0.70310715  0.58441542     0.78300
C879        C  0.35898259  0.60857968  0.62373487     0.78800
C880        C  0.39457452  0.74802174  0.62376598     0.77700
C881        C  0.25572532  0.64256821  0.62321925     0.78100
C882        C  0.28821644  0.57969222  0.58389003     0.79200
C883        C  0.30099750  0.71363580  0.58315522     0.78300
Zn884      Zn  0.00240356  0.50625600  0.69735717     1.49700
Zn885      Zn  0.05781866  0.53939916  0.71901196     1.49400
Zn886      Zn  0.47384587  0.53084013  0.72037172     1.49100
Zn887      Zn  0.48057829  0.94773695  0.72058607     1.49500
O888        O  0.00335834  0.50738250  0.71466328    -1.83000
O889        O  0.05072507  0.54214606  0.68960513    -0.73600
O890        O  0.06523252  0.58400551  0.72871869    -0.73400
O891        O  0.45058869  0.54544182  0.70611111    -0.73000
O892        O  0.09440144  0.56202059  0.70428099    -0.73600
O893        O  0.46840267  0.52189798  0.69095164    -0.73200
O894        O  0.00782293  0.57768966  0.73055095    -0.73800
O895        O  0.43400448  0.93397746  0.73131393    -0.73200
O896        O  0.07206738  0.50943361  0.73035912    -0.74000
O897        O  0.43288679  0.98823653  0.73187181    -0.73400
O898        O  0.01845494  0.94540814  0.73176974    -0.73800
O899        O  0.46726329  0.90892211  0.70616047    -0.73700
O900        O  0.48951675  0.95119794  0.69096380    -0.73500
C901        C  0.08526950  0.56115805  0.69302420     0.78300
C902        C  0.04363666  0.59527477  0.73289607     0.78800
C903        C  0.45108139  0.53811306  0.69475286     0.77700
C904        C  0.41986744  0.95359890  0.73528676     0.78100
C905        C  0.05249868  0.96909063  0.73541795     0.79200
C906        C  0.47454297  0.91700234  0.69475060     0.78300
C907        C  0.33686284  0.66561026  0.19783525     0.46600
H908        H  0.33557077  0.66481538  0.20805908    -0.02400
C909        C  0.33941565  0.66797563  0.17392895     0.46600
H910        H  0.34035463  0.66879605  0.16372469    -0.02400
C911        C  0.29762314  0.64604609  0.19177226    -0.16100
C912        C  0.35825560  0.70631598  0.19264570    -0.15900
C913        C  0.35667456  0.64595905  0.19247684    -0.16300
C914        C  0.29814321  0.64650157  0.17918650    -0.16200
C915        C  0.35941896  0.70836224  0.18002202    -0.15800
C916        C  0.35872544  0.64709860  0.17983151    -0.16100
C917        C  0.00444747  0.50395052  0.14548643     0.46600
H918        H  0.00476102  0.50346888  0.15569663    -0.02400
C919        C  0.00402089  0.50567937  0.12165799     0.46600
H920        H  0.00332198  0.50574532  0.11147163    -0.02400
C921        C  0.47552211  0.96353886  0.14068229    -0.16100
C922        C  0.48743713  0.52772213  0.14004531    -0.15900
C923        C  0.04491789  0.52203238  0.13970359    -0.16300
C924        C  0.47550039  0.96527659  0.12804937    -0.16200
C925        C  0.48794485  0.52871085  0.12737682    -0.15800
C926        C  0.04434496  0.52249032  0.12702861    -0.16100
Zn927      Zn  0.14696025  0.86444402  0.94124279     1.49700
Zn928      Zn  0.13803064  0.78093967  0.94097746     1.49400
Zn929      Zn  0.16540222  0.83399903  0.91743896     1.49100
Zn930      Zn  0.22191128  0.85796108  0.94040963     1.49500
O931        O  0.16817108  0.83420696  0.93514203    -1.83000
O932        O  0.10186910  0.83197588  0.95207059    -0.73600
O933        O  0.11519335  0.74283429  0.92687606    -0.73400
O934        O  0.13910677  0.86078727  0.91125244    -0.73000
O935        O  0.09660508  0.77468595  0.95241670    -0.73600
O936        O  0.13247154  0.88900594  0.92770888    -0.73200
O937        O  0.13918554  0.78089339  0.91051368    -0.79200
O938        O  0.25811394  0.87464182  0.92583648    -0.73200
O939        O  0.17063171  0.76823568  0.95161544    -0.74000
O940        O  0.21743187  0.86173724  0.91036819    -0.73400
O941        O  0.22834067  0.82137852  0.95109869    -0.73800
O942        O  0.23735616  0.90354119  0.95157442    -0.73700
O943        O  0.18412761  0.90570971  0.95243529    -0.73500
C944        C  0.08652942  0.79779525  0.95616637     0.78300
C945        C  0.11978425  0.74763664  0.91528555     0.78800
C946        C  0.12963816  0.88300601  0.91617115     0.77700
C947        C  0.25120928  0.87519979  0.91442235     0.78100
C948        C  0.20543903  0.78759067  0.95511077     0.79200
C949        C  0.21831297  0.91772321  0.95585973     0.78300
Zn950      Zn  0.28694978  0.65017999  0.04172393     1.49700
Zn951      Zn  0.33720930  0.67212324  0.06579468     1.49400
Zn952      Zn  0.36464790  0.64659459  0.04303202     1.49100
Zn953      Zn  0.36826660  0.72843422  0.04246879     1.49500
O954        O  0.33943477  0.67449428  0.04807560    -1.83000
O955        O  0.24747464  0.63331082  0.05528942    -0.73600
O956        O  0.35863737  0.64251082  0.07315036    -0.73400
O957        O  0.32908143  0.60241867  0.03193162    -0.73000
O958        O  0.28406411  0.64708120  0.07189908    -0.73600
O959        O  0.27553483  0.60441985  0.03146569    -0.73200
O960        O  0.38276963  0.62719594  0.05748781    -0.73800
O961        O  0.41373541  0.73750865  0.03223878    -0.73200
O962        O  0.36614833  0.72433807  0.07282522    -0.74000
O963        O  0.40976428  0.68076456  0.03251548    -0.73400
O964        O  0.38535198  0.76518925  0.05703464    -0.73800
O965        O  0.33683709  0.74023071  0.03079556    -0.73700
O966        O  0.28069124  0.68544062  0.03022416    -0.73500
C967        C  0.25141585  0.63332187  0.06690427     0.78300
C968        C  0.37656973  0.62719329  0.06897454     0.78800
C969        C  0.29508519  0.58979657  0.02804312     0.77700
C970        C  0.42540989  0.71533836  0.02877924     0.78100
C971        C  0.38283809  0.75828811  0.06855439     0.79200
C972        C  0.30292303  0.71983380  0.02659396     0.78300
C973        C  0.22350835  0.74048364  0.98272648     0.17100
C974        C  0.21996468  0.71816670  0.99304572    -0.32000
C975        C  0.25140176  0.73232855  0.00105841     0.21500
C976        C  0.28486395  0.76720079  0.99894180     0.03700
C977        C  0.28838245  0.78956441  0.98863058    -0.21700
C978        C  0.25700406  0.77530357  0.98058626     0.12900
S979        S  0.18813832  0.72911262  0.97217067    -0.05300
C980        C  0.21869896  0.77192466  0.96483482    -0.08800
C981        C  0.25452978  0.79331832  0.97027986    -0.25400
S982        S  0.32026995  0.77842985  0.00948444    -0.02600
C983        C  0.28987004  0.73533889  0.01671777    -0.16100
C984        C  0.25399611  0.71407859  0.01128791    -0.14100
H985        H  0.19387735  0.69093696  0.99474780     0.21300
H986        H  0.31447390  0.81678859  0.98692190     0.17400
H987        H  0.27692609  0.82149015  0.96722125     0.19900
H988        H  0.23157399  0.68590965  0.01433494     0.13200
C989        C  0.24140078  0.51611586  0.00260479     0.17100
C990        C  0.21517887  0.49265297  0.99357814    -0.32000
C991        C  0.23261963  0.98068712  0.98179315     0.21500
C992        C  0.26910094  0.98639195  0.98280386     0.03700
C993        C  0.29318898  0.00767932  0.99259730    -0.21700
C994        C  0.27911805  0.52499919  0.00233300     0.12900
S995        S  0.23134929  0.53764418  0.01421170    -0.05300
C996        C  0.27856763  0.55918386  0.01872804    -0.08800
C997        C  0.30054779  0.54947360  0.01164597    -0.25400
S998        S  0.28001048  0.96404361  0.97164249    -0.02600
C999        C  0.23483707  0.94684234  0.96563049    -0.16100
C1000       C  0.21305028  0.95844024  0.97191991    -0.14100
H1001       H  0.18578158  0.48587304  0.99372825     0.21300
H1002       H  0.32172605  0.01229797  0.99345145     0.17400
H1003       H  0.33099217  0.56123594  0.01285448     0.19900
H1004       H  0.18367460  0.94953949  0.96973368     0.13200
C1005       C  0.02461654  0.78564248  0.98402867     0.17100
C1006       C  0.50564913  0.79115354  0.99373672    -0.32000
C1007       C  0.49033860  0.76302417  0.00296109     0.21500
C1008       C  0.49391821  0.73091676  0.00253736     0.03700
C1009       C  0.01285139  0.72526248  0.99272649    -0.21700
C1010       C  0.02787892  0.75336709  0.98348454     0.12900
S1011       S  0.04555487  0.81686385  0.97208884    -0.05300
C1012       C  0.05899336  0.78619298  0.96628944    -0.08800
C1013       C  0.04739161  0.75336563  0.97326925    -0.25400
S1014       S  0.47089489  0.69872465  0.01409910    -0.02600
C1015       C  0.45568001  0.72850011  0.01945821    -0.16100
C1016       C  0.46878302  0.76204245  0.01274018    -0.14100
H1017       H  0.50262795  0.81605405  0.99404770     0.21300
H1018       H  0.01521149  0.69998991  0.99224037     0.17400
H1019       H  0.05436558  0.73160958  0.97128617     0.19900
H1020       H  0.46089538  0.78328188  0.01442991     0.13200
C1021       C  0.42742990  0.82813468  0.09518459     0.17100
C1022       C  0.44603911  0.84689937  0.10604339    -0.32000
C1023       C  0.44496046  0.87953056  0.10932086     0.21500
C1024       C  0.42558878  0.89253339  0.10221595     0.03700
C1025       C  0.40701447  0.87380573  0.09131207    -0.21700
C1026       C  0.40881727  0.84158617  0.08788990     0.12900
S1027       S  0.42513462  0.78778158  0.08982501    -0.05300
C1028       C  0.39981002  0.78959729  0.07744690    -0.08800
C1029       C  0.39313499  0.81967748  0.07754703    -0.25400
S1030       S  0.42847551  0.93318190  0.10761872    -0.02600
C1031       C  0.45624661  0.93269228  0.11950055    -0.16100
C1032       C  0.46290751  0.90266401  0.11922833    -0.14100
H1033       H  0.46100360  0.83668650  0.11163898     0.21300
H1034       H  0.39230951  0.88420519  0.08566981     0.17400
H1035       H  0.37659408  0.82434377  0.07070346     0.19900
H1036       H  0.98015412  0.89778362  0.12567512     0.13200
C1037       C  0.40012536  0.58116679  0.09570861     0.17100
C1038       C  0.40035283  0.56313663  0.10671870    -0.32000
C1039       C  0.43341838  0.56219071  0.10954971     0.21500
C1040       C  0.46500899  0.57919623  0.10184733     0.03700
C1041       C  0.46461410  0.59671481  0.09077382    -0.21700
C1042       C  0.43130132  0.59693532  0.08781175     0.12900
S1043       S  0.36338232  0.58651473  0.09085597    -0.05300
C1044       C  0.38980581  0.60928200  0.07789690    -0.08800
C1045       C  0.42533433  0.61262660  0.07745321    -0.25400
S1046       S  0.50220661  0.57501842  0.10677178    -0.02600
C1047       C  0.47484511  0.54892191  0.11917052    -0.16100
C1048       C  0.43873894  0.54444308  0.11950290    -0.14100
H1049       H  0.37575273  0.55028653  0.11278839     0.21300
H1050       H  0.48917876  0.60940009  0.08468191     0.17400
H1051       H  0.44623002  0.62713343  0.07021424     0.19900
H1052       H  0.41712928  0.52792645  0.12636944     0.13200
C1053       C  0.13692057  0.55807397  0.10805092     0.17100
C1054       C  0.17356590  0.56977466  0.10365924    -0.32000
C1055       C  0.18369338  0.58770110  0.09210835     0.21500
C1056       C  0.15836435  0.59306777  0.08509374     0.03700
C1057       C  0.12198780  0.58190111  0.08958543    -0.21700
C1058       C  0.11221578  0.56473788  0.10124574     0.12900
S1059       S  0.11863130  0.53549798  0.12176801    -0.05300
C1060       C  0.07809213  0.53746905  0.11869463    -0.08800
C1061       C  0.07871464  0.55299839  0.10725712    -0.25400
S1062       S  0.17572340  0.61405767  0.07109584    -0.02600
C1063       C  0.21783731  0.61645602  0.07492525    -0.16100
C1064       C  0.21804815  0.60152532  0.08637014    -0.14100
H1065       H  0.19334115  0.56525609  0.10901090     0.21300
H1066       H  0.10223406  0.58654516  0.08426623     0.17400
H1067       H  0.05615030  0.55618033  0.10343033     0.19900
H1068       H  0.24201466  0.60047328  0.09022467     0.13200
C1069       C  0.41813655  0.61858279  0.15977454     0.17100
C1070       C  0.44426760  0.61782523  0.15158470    -0.32000
C1071       C  0.45056700  0.58701791  0.15249684     0.21500
C1072       C  0.43169751  0.55813401  0.16115179     0.03700
C1073       C  0.40575930  0.55902979  0.16941510    -0.21700
C1074       C  0.39942381  0.58984423  0.16848248     0.12900
S1075       S  0.40687931  0.65374676  0.16029097    -0.05300
C1076       C  0.37739079  0.63014375  0.17259982    -0.08800
C1077       C  0.37563118  0.59600590  0.17572955    -0.25400
S1078       S  0.44179355  0.52219268  0.16023341    -0.02600
C1079       C  0.47091593  0.54574642  0.14782055    -0.16100
C1080       C  0.47374640  0.58055415  0.14504790    -0.14100
H1081       H  0.45886226  0.64014043  0.14473071     0.21300
H1082       H  0.39091952  0.53654658  0.17619958     0.17400
H1083       H  0.35835177  0.57689653  0.18306873     0.19900
H1084       H  0.99061530  0.59928477  0.13768883     0.13200
C1085       C  0.44644821  0.87450476  0.16127378     0.17100
C1086       C  0.44529657  0.84781869  0.16978657    -0.32000
C1087       C  0.41503047  0.80936129  0.16885517     0.21500
C1088       C  0.38713162  0.79790555  0.15985036     0.03700
C1089       C  0.38814434  0.82465165  0.15138814    -0.21700
C1090       C  0.41836929  0.86313371  0.15233581     0.12900
S1091       S  0.48137791  0.92223305  0.16057800    -0.05300
C1092       C  0.45836903  0.92704183  0.14797521    -0.08800
C1093       C  0.42465755  0.89318833  0.14484585    -0.25400
S1094       S  0.35283470  0.74990954  0.16032313    -0.02600
C1095       C  0.37580422  0.74516310  0.17294566    -0.16100
C1096       C  0.40884632  0.77930264  0.17631798    -0.14100
H1097       H  0.46715797  0.85661955  0.17681116     0.21300
H1098       H  0.36637530  0.81581757  0.14432834     0.17400
H1099       H  0.40591244  0.89038877  0.13733064     0.19900
H1100       H  0.42749905  0.78219819  0.18386531     0.13200
C1101       C  0.20838764  0.61593322  0.15923988     0.17100
C1102       C  0.17998567  0.61499996  0.15165867    -0.32000
C1103       C  0.14308478  0.58199466  0.15204517     0.21500
C1104       C  0.13483853  0.55086796  0.15947183     0.03700
C1105       C  0.16322572  0.55185221  0.16711301    -0.21700
C1106       C  0.20002970  0.58516207  0.16685149     0.12900
S1107       S  0.25456997  0.65397016  0.16045539    -0.05300
C1108       C  0.26253052  0.62875299  0.17161215    -0.08800
C1109       C  0.23103815  0.59225626  0.17389704    -0.25400
S1110       S  0.08869712  0.51276664  0.15804763    -0.02600
C1111       C  0.08065338  0.53886477  0.14720105    -0.16100
C1112       C  0.11191409  0.57563009  0.14523340    -0.14100
H1113       H  0.18632028  0.63906006  0.14574963     0.21300
H1114       H  0.15690304  0.52778675  0.17301978     0.17400
H1115       H  0.23057414  0.57224005  0.18057401     0.19900
H1116       H  0.11234734  0.59589671  0.13865095     0.13200
C1117       C  0.39489078  0.56172597  0.67183352     0.17100
C1118       C  0.36970389  0.56931990  0.66544481    -0.32000
C1119       C  0.37369584  0.57315874  0.65261526     0.21500
C1120       C  0.40115881  0.56935742  0.64637743     0.03700
C1121       C  0.42594013  0.56139994  0.65272527    -0.21700
C1122       C  0.42217499  0.55793110  0.66549606     0.12900
S1123       S  0.39578763  0.55654922  0.68747455    -0.05300
C1124       C  0.43302086  0.54888131  0.68522720    -0.08800
C1125       C  0.44403843  0.55078255  0.67309582    -0.25400
S1126       S  0.40372907  0.57838927  0.63097874    -0.02600
C1127       C  0.36799918  0.58831372  0.63300077    -0.16100
C1128       C  0.35416551  0.58348576  0.64492426    -0.14100
H1129       H  0.34852014  0.57288320  0.67025529     0.21300
H1130       H  0.44784619  0.55889913  0.64795323     0.17400
H1131       H  0.46684849  0.54664574  0.66993598     0.19900
H1132       H  0.33283662  0.58994431  0.64797617     0.13200
C1133       C  0.44366213  0.83230396  0.64644429     0.17100
C1134       C  0.45959923  0.86757919  0.65252873    -0.32000
C1135       C  0.45967740  0.86707583  0.66543422     0.21500
C1136       C  0.44512663  0.83328999  0.67211315     0.03700
C1137       C  0.43009010  0.79802950  0.66601390    -0.21700
C1138       C  0.42956956  0.79848242  0.65308358     0.12900
S1139       S  0.43706857  0.82616800  0.63084648    -0.05300
C1140       C  0.41498429  0.77742599  0.63331789    -0.08800
C1141       C  0.41362905  0.76708534  0.64559796    -0.25400
S1142       S  0.44563329  0.83920757  0.68777810    -0.02600
C1143       C  0.46556748  0.88773386  0.68520135    -0.16100
C1144       C  0.47168781  0.89815311  0.67285468    -0.14100
H1145       H  0.47021745  0.89414142  0.64745040     0.21300
H1146       H  0.41812507  0.77132224  0.67109731     0.17400
H1147       H  0.39988098  0.73780322  0.64897022     0.19900
H1148       H  0.48340134  0.92714066  0.66939795     0.13200
C1149       C  0.16839150  0.61546225  0.67038620     0.17100
C1150       C  0.20375850  0.63632370  0.66442850    -0.32000
C1151       C  0.20407984  0.63245113  0.65161791     0.21500
C1152       C  0.17085542  0.60951214  0.64494915     0.03700
C1153       C  0.13542009  0.58953197  0.65086116    -0.21700
C1154       C  0.13517951  0.59287301  0.66367549     0.12900
S1155       S  0.16193208  0.61293472  0.68600026    -0.05300
C1156       C  0.11404036  0.58093278  0.68335923    -0.08800
C1157       C  0.10399360  0.57344969  0.67104263    -0.25400
S1158       S  0.17790963  0.60580345  0.62964226    -0.02600
C1159       C  0.22619205  0.63514575  0.63231745    -0.16100
C1160       C  0.23582095  0.64761287  0.64438730    -0.14100
H1161       H  0.22997114  0.65350465  0.66957161     0.21300
H1162       H  0.10941877  0.57098266  0.64578086     0.17400
H1163       H  0.07541147  0.55362602  0.66763997     0.19900
H1164       H  0.26476757  0.66521039  0.64784589     0.13200
C1165       C  0.24867488  0.96356907  0.54371392     0.17100
C1166       C  0.27680195  0.99790192  0.54918969    -0.32000
C1167       C  0.26861848  0.50412806  0.56160673     0.21500
C1168       C  0.23093578  0.49536675  0.56179502     0.03700
C1169       C  0.20095394  0.95699496  0.55853387    -0.21700
C1170       C  0.21175309  0.94346691  0.54838356     0.12900
S1171       S  0.25601485  0.94219551  0.53137662    -0.05300
C1172       C  0.20878033  0.90568629  0.53255048    -0.08800
C1173       C  0.18889167  0.91008303  0.54207450    -0.25400
S1174       S  0.22274840  0.52342413  0.57144321    -0.02600
C1175       C  0.27053796  0.54691532  0.57537405    -0.16100
C1176       C  0.29142057  0.53352728  0.56943558    -0.14100
H1177       H  0.30988713  0.49146815  0.55383724     0.21300
H1178       H  0.17201509  0.94121410  0.56211183     0.17400
H1179       H  0.15920238  0.88984266  0.54427790     0.19900
H1180       H  0.32184907  0.54509994  0.57064104     0.13200
C1181       C  0.04979727  0.78948476  0.54697170     0.17100
C1182       C  0.02541792  0.79108481  0.55562310    -0.32000
C1183       C  0.50206567  0.75823330  0.56266269     0.21500
C1184       C  0.50329794  0.72499942  0.56120793     0.03700
C1185       C  0.02761185  0.72293825  0.55226714    -0.21700
C1186       C  0.05063943  0.75610230  0.54527177     0.12900
S1187       S  0.08137634  0.82730951  0.53814703    -0.05300
C1188       C  0.09497181  0.79750234  0.53183762    -0.08800
C1189       C  0.07667870  0.76057441  0.53652612    -0.25400
S1190       S  0.47207531  0.68772236  0.57037012    -0.02600
C1191       C  0.45682576  0.71715068  0.57603919    -0.16100
C1192       C  0.47559496  0.75397252  0.57118239    -0.14100
H1193       H  0.02464252  0.81701449  0.55693051     0.21300
H1194       H  0.02850546  0.69705523  0.55098467     0.17400
H1195       H  0.08322454  0.73886319  0.53401703     0.19900
H1196       H  0.46942314  0.77607699  0.57348623     0.13200
C1197       C  0.20937724  0.75358881  0.54848082     0.17100
C1198       C  0.20831098  0.72791492  0.55734957    -0.32000
C1199       C  0.24323468  0.73604549  0.56258334     0.21500
C1200       C  0.27762199  0.76841659  0.55921647     0.03700
C1201       C  0.27873360  0.79380717  0.55023758    -0.21700
C1202       C  0.24390269  0.78551876  0.54491931     0.12900
S1203       S  0.17009263  0.74972491  0.54139939    -0.05300
C1204       C  0.20068398  0.79084395  0.53332146    -0.08800
C1205       C  0.23908260  0.80695403  0.53613545    -0.25400
S1206       S  0.31676462  0.77353634  0.56678774    -0.02600
C1207       C  0.28665110  0.73127800  0.57445496    -0.16100
C1208       C  0.24824336  0.71449122  0.57127902    -0.14100
H1209       H  0.18146498  0.70285883  0.56009327     0.21300
H1210       H  0.30554992  0.81896881  0.54754236     0.17400
H1211       H  0.26200958  0.83329883  0.53215805     0.19900
H1212       H  0.22524252  0.68785184  0.57508543     0.13200
C1213       C  0.26212171  0.53644642  0.49483093     0.17100
C1214       C  0.23241218  0.00550166  0.50085033    -0.32000
C1215       C  0.22866868  0.96922993  0.50013689     0.21500
C1216       C  0.25078700  0.96211757  0.49218372     0.03700
C1217       C  0.27904644  0.49305032  0.48528390    -0.21700
C1218       C  0.28278014  0.52929579  0.48628291     0.12900
S1219       S  0.26953353  0.58201653  0.49403387    -0.05300
C1220       C  0.29995883  0.59104938  0.48184191    -0.08800
C1221       C  0.30495683  0.56061908  0.47900157    -0.25400
S1222       S  0.24280454  0.91648411  0.49308481    -0.02600
C1223       C  0.21006117  0.90729082  0.50451231    -0.16100
C1224       C  0.20476755  0.93766139  0.50706147    -0.14100
H1225       H  0.21508662  0.01084237  0.50711144     0.21300
H1226       H  0.29511475  0.48767006  0.47850504     0.17400
H1227       H  0.32305990  0.56092370  0.47169673     0.19900
H1228       H  0.18547071  0.93711201  0.51398806     0.13200
C1229       C  0.03911930  0.75532363  0.49113992     0.17100
C1230       C  0.01008108  0.72918970  0.48319285    -0.32000
C1231       C  0.47402145  0.72572870  0.48391652     0.21500
C1232       C  0.46719338  0.74776956  0.49200880     0.03700
C1233       C  0.49618046  0.77394579  0.49992040    -0.21700
C1234       C  0.03242718  0.77774760  0.49909744     0.12900
S1235       S  0.08421038  0.76215436  0.49235153    -0.05300
C1236       C  0.09384610  0.79506312  0.50385844    -0.08800
C1237       C  0.06380150  0.80094175  0.50622141    -0.25400
S1238       S  0.42180749  0.74016908  0.49117833    -0.02600
C1239       C  0.41206298  0.70754666  0.47960193    -0.16100
C1240       C  0.44244426  0.70244571  0.47684737    -0.14100
H1241       H  0.01505988  0.71156629  0.47693605     0.21300
H1242       H  0.49102456  0.79125955  0.50626389     0.17400
H1243       H  0.06457300  0.82086688  0.51292895     0.19900
H1244       H  0.44159412  0.68276811  0.47001160     0.13200
C1245       C  0.24320434  0.77677584  0.49159973     0.17100
C1246       C  0.26704258  0.77409122  0.48289899    -0.32000
C1247       C  0.27341780  0.74339196  0.48404507     0.21500
C1248       C  0.25683437  0.71649431  0.49340322     0.03700
C1249       C  0.23280117  0.71905060  0.50204987    -0.21700
C1250       C  0.22646183  0.74977094  0.50091061     0.12900
S1251       S  0.23259647  0.81236410  0.49206714    -0.05300
C1252       C  0.20588084  0.79111439  0.50510896    -0.08800
C1253       C  0.20460837  0.75747848  0.50854308    -0.25400
S1254       S  0.26805070  0.68131084  0.49311568    -0.02600
C1255       C  0.29470943  0.70256905  0.48009078    -0.16100
C1256       C  0.29537943  0.73572407  0.47644847    -0.14100
H1257       H  0.28015011  0.79506109  0.47558441     0.21300
H1258       H  0.21974557  0.69812269  0.50937944     0.17400
H1259       H  0.18866597  0.73943134  0.51623434     0.19900
H1260       H  0.31084273  0.75317115  0.46857197     0.13200
C1261       C  0.39339494  0.92988716  0.88349488     0.17100
C1262       C  0.37588353  0.91477360  0.89487127    -0.32000
C1263       C  0.33917639  0.90875945  0.89669648     0.21500
C1264       C  0.32060908  0.91677690  0.88750998     0.03700
C1265       C  0.33819866  0.93207261  0.87620416    -0.21700
C1266       C  0.37506480  0.93869070  0.87446613     0.12900
S1267       S  0.43833139  0.94083478  0.87962134    -0.05300
C1268       C  0.43265639  0.95815177  0.86576452    -0.08800
C1269       C  0.39747643  0.95517527  0.86432835    -0.25400
S1270       S  0.27587813  0.90645850  0.89123982    -0.02600
C1271       C  0.28228397  0.89166520  0.90541873    -0.16100
C1272       C  0.31737899  0.89465137  0.90712536    -0.14100
H1273       H  0.39036146  0.90841453  0.90200535     0.21300
H1274       H  0.32389463  0.93880963  0.86911222     0.17400
H1275       H  0.38528151  0.46997747  0.85666649     0.19900
H1276       H  0.32599468  0.88608982  0.91537397     0.13200
C1277       C  0.06488340  0.93115968  0.87457734     0.17100
C1278       C  0.07213275  0.90355637  0.87930541    -0.32000
C1279       C  0.08983777  0.91063936  0.89081915     0.21500
C1280       C  0.09986695  0.94365588  0.89744270     0.03700
C1281       C  0.09305953  0.97168501  0.89260908    -0.21700
C1282       C  0.07532658  0.96456655  0.88101070     0.12900
S1283       S  0.04187598  0.92661581  0.86105337    -0.05300
C1284       C  0.04691727  0.97068875  0.86381427    -0.08800
C1285       C  0.06511878  0.98744847  0.87485296    -0.25400
S1286       S  0.12019683  0.94583892  0.91145478    -0.02600
C1287       C  0.11544524  0.90209100  0.90814620    -0.16100
C1288       C  0.09895132  0.88695108  0.89685017    -0.14100
H1289       H  0.06393077  0.87744180  0.87428106     0.21300
H1290       H  0.10081496  0.99757618  0.89769472     0.17400
H1291       H  0.06994006  0.01457169  0.87829706     0.19900
H1292       H  0.09381609  0.85987318  0.89324000     0.13200
C1293       C  0.07723639  0.63246614  0.87415979     0.17100
C1294       C  0.10500018  0.66811520  0.87898872    -0.32000
C1295       C  0.09670138  0.67928806  0.89018245     0.21500
C1296       C  0.06276677  0.65571598  0.89643264     0.03700
C1297       C  0.03492841  0.62032154  0.89154447    -0.21700
C1298       C  0.04286031  0.60955558  0.88025595     0.12900
S1299       S  0.08165906  0.61323753  0.86078301    -0.05300
C1300       C  0.03600237  0.57480306  0.86325691    -0.08800
C1301       C  0.01913025  0.57651508  0.87403302    -0.25400
S1302       S  0.05848874  0.67394220  0.91003602    -0.02600
C1303       C  0.10240669  0.71420078  0.90711291    -0.16100
C1304       C  0.11942113  0.71319770  0.89621993    -0.14100
H1305       H  0.13172333  0.68637751  0.87421926     0.21300
H1306       H  0.00817487  0.60204607  0.89629958     0.17400
H1307       H  0.99095225  0.55452867  0.87717244     0.19900
H1308       H  0.14699123  0.73601654  0.89294190     0.13200
C1309       C  0.34113635  0.89911357  0.75958479     0.17100
C1310       C  0.31494832  0.87289686  0.76817301    -0.32000
C1311       C  0.29123084  0.88305901  0.77431898     0.21500
C1312       C  0.29349957  0.91778789  0.77203465     0.03700
C1313       C  0.32000608  0.94418041  0.76357437    -0.21700
C1314       C  0.34360017  0.93394902  0.75740264     0.12900
S1315       S  0.37189524  0.89194393  0.75095210    -0.05300
C1316       C  0.38832624  0.93640879  0.74433517    -0.08800
C1317       C  0.37065855  0.95548855  0.74870840    -0.25400
S1318       S  0.26066888  0.92375795  0.77985050    -0.02600
C1319       C  0.24425609  0.87936831  0.78641367    -0.16100
C1320       C  0.26298820  0.86087772  0.78263212    -0.14100
H1321       H  0.31280021  0.84561266  0.76986679     0.21300
H1322       H  0.32173163  0.97120701  0.76173542     0.17400
H1323       H  0.37733218  0.98371621  0.74571073     0.19900
H1324       H  0.25544678  0.83228902  0.78550640     0.13200
C1325       C  0.10639727  0.94922523  0.76049203     0.17100
C1326       C  0.13187756  0.95101057  0.76952339    -0.32000
C1327       C  0.12385944  0.91631041  0.77499333     0.21500
C1328       C  0.09182625  0.88147933  0.77166613     0.03700
C1329       C  0.06607626  0.87983102  0.76283009    -0.21700
C1330       C  0.07421005  0.91438801  0.75731641     0.12900
S1331       S  0.11158027  0.98766002  0.75236129    -0.05300
C1332       C  0.06986444  0.95630698  0.74466631    -0.08800
C1333       C  0.05305270  0.91829479  0.74831054    -0.25400
S1334       S  0.08831653  0.84226080  0.77868608    -0.02600
C1335       C  0.13009675  0.87310419  0.78627044    -0.16100
C1336       C  0.14596315  0.91164254  0.78350154    -0.14100
H1337       H  0.15717553  0.97808786  0.77200020     0.21300
H1338       H  0.04119698  0.85266199  0.76017146     0.17400
H1339       H  0.02677299  0.89469426  0.74453357     0.19900
H1340       H  0.17280052  0.93465557  0.78718489     0.13200
C1341       C  0.08715714  0.71092287  0.77380508     0.17100
C1342       C  0.05740959  0.67833155  0.76800816    -0.32000
C1343       C  0.06653477  0.66522179  0.75740660     0.21500
C1344       C  0.10369637  0.68339581  0.75290738     0.03700
C1345       C  0.13337871  0.71587567  0.75869915    -0.21700
C1346       C  0.12417879  0.72921562  0.76918546     0.12900
S1347       S  0.08190540  0.73223102  0.78651171    -0.05300
C1348       C  0.13017050  0.76576139  0.78557248    -0.08800
C1349       C  0.14895265  0.76086890  0.77587339    -0.25400
S1350       S  0.10939991  0.66238763  0.74026092    -0.02600
C1351       C  0.06111970  0.62891647  0.74094145    -0.16100
C1352       C  0.04175854  0.63399492  0.75047115    -0.14100
H1353       H  0.02845428  0.66400444  0.77155121     0.21300
H1354       H  0.16235254  0.73016727  0.75517244     0.17400
H1355       H  0.17906737  0.77969906  0.77380155     0.19900
H1356       H  0.01163540  0.61502178  0.75249282     0.13200
C1357       C  0.09247310  0.95702415  0.82827798     0.17100
C1358       C  0.12420595  0.95465954  0.82470869    -0.32000
C1359       C  0.11757684  0.91871973  0.82094856     0.21500
C1360       C  0.08094558  0.88646165  0.82076521     0.03700
C1361       C  0.04912628  0.88889364  0.82423274    -0.21700
C1362       C  0.05573601  0.92495122  0.82790669     0.12900
S1363       S  0.09495989  0.99735965  0.83399458    -0.05300
C1364       C  0.04601966  0.97092035  0.83582400    -0.08800
C1365       C  0.02878516  0.93295494  0.83203445    -0.25400
S1366       S  0.07889375  0.84577304  0.81556153    -0.02600
C1367       C  0.12782022  0.87254599  0.81363519    -0.16100
C1368       C  0.14460571  0.91089240  0.81683215    -0.14100
H1369       H  0.15288401  0.97970448  0.82495129     0.21300
H1370       H  0.02048460  0.86378165  0.82408131     0.17400
H1371       H  0.99862957  0.91174738  0.83313241     0.19900
H1372       H  0.17470894  0.93219279  0.81567331     0.13200
C1373       C  0.36155033  0.91091640  0.83143087     0.17100
C1374       C  0.32429190  0.88022848  0.82902494    -0.32000
C1375       C  0.29848499  0.88869699  0.82339650     0.21500
C1376       C  0.30931136  0.92613811  0.82032630     0.03700
C1377       C  0.34657794  0.95681664  0.82270285    -0.21700
C1378       C  0.37244048  0.94830935  0.82826440     0.12900
S1379       S  0.39645353  0.90683444  0.83874006    -0.05300
C1380       C  0.42593198  0.95604980  0.83758825    -0.08800
C1381       C  0.40959863  0.97429689  0.83162402    -0.25400
S1382       S  0.27449384  0.93026360  0.81302959    -0.02600
C1383       C  0.24520938  0.88099019  0.81396098    -0.16100
C1384       C  0.26154021  0.86263385  0.81982861    -0.14100
H1385       H  0.31577929  0.85098353  0.83144152     0.21300
H1386       H  0.35510739  0.98605242  0.82026075     0.17400
H1387       H  0.42050252  0.50398034  0.82836835     0.19900
H1388       H  0.24791756  0.83173390  0.82076030     0.13200
C1389       C  0.08430410  0.70447515  0.82475615     0.17100
C1390       C  0.05616077  0.67490916  0.83213646    -0.32000
C1391       C  0.05079593  0.63792409  0.83100706     0.21500
C1392       C  0.07213389  0.63053913  0.82280348     0.03700
C1393       C  0.10000267  0.65999309  0.81536793    -0.21700
C1394       C  0.10578200  0.69704008  0.81663649     0.12900
S1395       S  0.09526887  0.75135687  0.82460162    -0.05300
C1396       C  0.12885108  0.76090267  0.81338226    -0.08800
C1397       C  0.13168512  0.72930843  0.81026102    -0.25400
S1398       S  0.06312121  0.58443094  0.82340105    -0.02600
C1399       C  0.03124926  0.57524461  0.83514139    -0.16100
C1400       C  0.02678555  0.60610172  0.83794571    -0.14100
H1401       H  0.03957666  0.68059302  0.83860986     0.21300
H1402       H  0.11698498  0.65444244  0.80902422     0.17400
H1403       H  0.15079622  0.72961272  0.80331236     0.19900
H1404       H  0.00864577  0.60594059  0.84522343     0.13200
C1405       C  0.41133847  0.78325738  0.21707189     0.17100
C1406       C  0.43598739  0.80687283  0.22638447    -0.32000
C1407       C  0.42899114  0.83427836  0.23144989     0.21500
C1408       C  0.39843616  0.83764968  0.22755598     0.03700
C1409       C  0.37378163  0.81406263  0.21820834    -0.21700
C1410       C  0.38117311  0.78705734  0.21299199     0.12900
S1411       S  0.41482302  0.74795172  0.20994197    -0.05300
C1412       C  0.37602320  0.73903390  0.20113927    -0.08800
C1413       C  0.36071119  0.76163870  0.20376241    -0.25400
S1414       S  0.39507953  0.87292458  0.23480313    -0.02600
C1415       C  0.43574995  0.88376679  0.24298058    -0.16100
C1416       C  0.45055317  0.86069253  0.24029648    -0.14100
H1417       H  0.45972726  0.80415141  0.22949417     0.21300
H1418       H  0.35011346  0.81686286  0.21507326     0.17400
H1419       H  0.33559132  0.75895711  0.19935751     0.19900
H1420       H  0.47609567  0.86353933  0.24442647     0.13200
C1421       C  0.37886432  0.59345273  0.21734067     0.17100
C1422       C  0.37741845  0.57083706  0.22731456    -0.32000
C1423       C  0.41193494  0.57458731  0.23124789     0.21500
C1424       C  0.44643512  0.60013564  0.22560351     0.03700
C1425       C  0.44784701  0.62258489  0.21556817    -0.21700
C1426       C  0.41324928  0.61847946  0.21153115     0.12900
S1427       S  0.34028193  0.59372556  0.21144964    -0.05300
C1428       C  0.37057641  0.62728263  0.20088950    -0.08800
C1429       C  0.40865726  0.63799192  0.20200801    -0.25400
S1430       S  0.48518601  0.60079723  0.23183095    -0.02600
C1431       C  0.45454112  0.56574140  0.24199775    -0.16100
C1432       C  0.41634661  0.55453777  0.24062581    -0.14100
H1433       H  0.35055195  0.55118187  0.23181158     0.21300
H1434       H  0.47473008  0.64236311  0.21110395     0.17400
H1435       H  0.43170456  0.65954885  0.19638712     0.19900
H1436       H  0.39309233  0.53280807  0.24614489     0.13200
C1437       C  0.17026723  0.55999631  0.22817135     0.17100
C1438       C  0.19677758  0.55883379  0.22037593    -0.32000
C1439       C  0.21912924  0.59104341  0.21298749     0.21500
C1440       C  0.21519966  0.62298490  0.21325275     0.03700
C1441       C  0.18883525  0.62425124  0.22112076    -0.21700
C1442       C  0.16661850  0.59207786  0.22857254     0.12900
S1443       S  0.14013599  0.52354502  0.23770960    -0.05300
C1444       C  0.12263302  0.55194529  0.24236115    -0.08800
C1445       C  0.13937364  0.58769455  0.23676887    -0.25400
S1446       S  0.24556273  0.65939746  0.20369973    -0.02600
C1447       C  0.26331811  0.63103549  0.19935383    -0.16100
C1448       C  0.24712599  0.59573227  0.20509284    -0.14100
H1449       H  0.19991574  0.53396472  0.22010259     0.21300
H1450       H  0.18587284  0.64923926  0.22145557     0.17400
H1451       H  0.13154169  0.60902824  0.23844291     0.19900
H1452       H  0.25595243  0.57505090  0.20371891     0.13200
C1453       C  0.09132470  0.92622010  0.31385644     0.17100
C1454       C  0.10380569  0.90379593  0.31960345    -0.32000
C1455       C  0.10687654  0.90551060  0.33246396     0.21500
C1456       C  0.09821293  0.92851894  0.33941261     0.03700
C1457       C  0.08597833  0.95124879  0.33364358    -0.21700
C1458       C  0.08273371  0.94941481  0.32074417     0.12900
S1459       S  0.08348270  0.92645301  0.29838476    -0.05300
C1460       C  0.06803590  0.95788458  0.30121626    -0.08800
C1461       C  0.06974095  0.96791427  0.31352552    -0.25400
S1462       S  0.10381607  0.92591639  0.35498937    -0.02600
C1463       C  0.11831508  0.89376709  0.35198958    -0.16100
C1464       C  0.11823056  0.88559069  0.33959007    -0.14100
H1465       H  0.11033996  0.88542034  0.31431197     0.21300
H1466       H  0.07887161  0.96915830  0.33895280     0.17400
H1467       H  0.06040631  0.98656591  0.31709060     0.19900
H1468       H  0.12635576  0.86609503  0.33591642     0.13200
C1469       C  0.08681719  0.66307146  0.33861033     0.17100
C1470       C  0.08916288  0.63588391  0.33148135    -0.32000
C1471       C  0.08563517  0.63768079  0.31872652     0.21500
C1472       C  0.07931997  0.66470001  0.31320784     0.03700
C1473       C  0.07695335  0.69194690  0.32034467    -0.21700
C1474       C  0.08096805  0.69045103  0.33311890     0.12900
S1475       S  0.09480990  0.66854628  0.35410692    -0.05300
C1476       C  0.09198022  0.70919312  0.35306721    -0.08800
C1477       C  0.08306812  0.71645526  0.34142285    -0.25400
S1478       S  0.07211823  0.65930180  0.29764891    -0.02600
C1479       C  0.07675259  0.61967072  0.29875223    -0.16100
C1480       C  0.08526459  0.61257202  0.31045313    -0.14100
H1481       H  0.09400797  0.61453766  0.33566967     0.21300
H1482       H  0.07239162  0.71346251  0.31614231     0.17400
H1483       H  0.08225129  0.74185758  0.33891981     0.19900
H1484       H  0.08723851  0.58784086  0.31299609     0.13200
C1485       C  0.32970435  0.89019066  0.33739662     0.17100
C1486       C  0.36530433  0.90731497  0.33161046    -0.32000
C1487       C  0.36588930  0.91158057  0.31881978     0.21500
C1488       C  0.33275259  0.89889271  0.31196987     0.03700
C1489       C  0.29705193  0.88076833  0.31772167    -0.21700
C1490       C  0.29650482  0.87712278  0.33054295     0.12900
S1491       S  0.32295456  0.88600860  0.35296264    -0.05300
C1492       C  0.27495932  0.86688089  0.35012876    -0.08800
C1493       C  0.26502844  0.86325107  0.33779303    -0.25400
S1494       S  0.34017231  0.90959341  0.29662884    -0.02600
C1495       C  0.38839737  0.93147658  0.29958598    -0.16100
C1496       C  0.39777287  0.92992367  0.31175193    -0.14100
H1497       H  0.39149918  0.91821127  0.33687257     0.21300
H1498       H  0.27099880  0.87129667  0.31250936     0.17400
H1499       H  0.23634132  0.85251399  0.33429522     0.19900
H1500       H  0.42664180  0.94274678  0.31534919     0.13200
C1501       C  0.25402527  0.53873311  0.44065191     0.17100
C1502       C  0.22551275  0.51031799  0.43316159    -0.32000
C1503       C  0.24145101  0.98864533  0.42413304     0.21500
C1504       C  0.27926895  0.99812343  0.42331544     0.03700
C1505       C  0.30294015  0.52956569  0.43137053    -0.21700
C1506       C  0.29184484  0.54819130  0.43966324     0.12900
S1507       S  0.24675383  0.56549145  0.45112135    -0.05300
C1508       C  0.29509685  0.58949878  0.45404876    -0.08800
C1509       C  0.31561187  0.57756450  0.44729430    -0.25400
S1510       S  0.28673556  0.97102646  0.41293654    -0.02600
C1511       C  0.23843954  0.94706800  0.40952678    -0.16100
C1512       C  0.21803876  0.95965535  0.41620981    -0.14100
H1513       H  0.19600167  0.50305825  0.43380186     0.21300
H1514       H  0.33250377  0.53701501  0.43067708     0.17400
H1515       H  0.34635033  0.59028260  0.44777264     0.19900
H1516       H  0.18743438  0.94776072  0.41545332     0.13200
C1517       C  0.45155717  0.70598576  0.43710060     0.17100
C1518       C  0.47605897  0.70333685  0.42872920    -0.32000
C1519       C  0.50478363  0.73749464  0.42335236     0.21500
C1520       C  0.00824490  0.77277312  0.42584590     0.03700
C1521       C  0.48443208  0.77539370  0.43456959    -0.21700
C1522       C  0.45592258  0.74124607  0.44005408     0.12900
S1523       S  0.41448871  0.66771066  0.44434473    -0.05300
C1524       C  0.40560679  0.69959356  0.45172991    -0.08800
C1525       C  0.42951861  0.73776317  0.44853883    -0.25400
S1526       S  0.04428591  0.81070013  0.41810234    -0.02600
C1527       C  0.05412198  0.77877466  0.41113022    -0.16100
C1528       C  0.03069582  0.74081931  0.41471159    -0.14100
H1529       H  0.47276634  0.67588114  0.42647201     0.21300
H1530       H  0.98723339  0.80298448  0.43654646     0.17400
H1531       H  0.42731162  0.76138013  0.45210075     0.19900
H1532       H  0.03270032  0.71694081  0.41129669     0.13200
C1533       C  0.26579986  0.75157733  0.41954431     0.17100
C1534       C  0.29547262  0.75112480  0.42582089    -0.32000
C1535       C  0.28559879  0.72580401  0.43573746     0.21500
C1536       C  0.24779610  0.70168270  0.43929165     0.03700
C1537       C  0.21785512  0.70152618  0.43281442    -0.21700
C1538       C  0.22782545  0.72714205  0.42286873     0.12900
S1539       S  0.27263559  0.78267677  0.40795683    -0.05300
C1540       C  0.22379797  0.76282845  0.40751460    -0.08800
C1541       C  0.20335344  0.73305212  0.41581040    -0.25400
S1542       S  0.24238717  0.67370366  0.45182113    -0.02600
C1543       C  0.29151816  0.69495462  0.45210538    -0.16100
C1544       C  0.31068633  0.72174657  0.44296858    -0.14100
H1545       H  0.32509903  0.77028405  0.42324075     0.21300
H1546       H  0.18829229  0.68285958  0.43552999     0.17400
H1547       H  0.17260697  0.71804357  0.41703888     0.19900
H1548       H  0.34144885  0.73727294  0.44167211     0.13200
Zn1549     Zn  0.67313113  0.33098226  0.36543607     1.49700
Zn1550     Zn  0.72698138  0.36046614  0.38762860     1.49400
Zn1551     Zn  0.64720217  0.35955218  0.38738789     1.49100
Zn1552     Zn  0.64600766  0.27881787  0.38850880     1.49500
O1553       O  0.67318898  0.33240272  0.38274426    -1.83000
O1554       O  0.72246646  0.36668520  0.35814278    -0.73600
O1555       O  0.73584297  0.40346441  0.39864888    -0.73400
O1556       O  0.62505539  0.37322580  0.37258611    -0.73000
O1557       O  0.76436542  0.38491230  0.37334274    -0.73600
O1558       O  0.63756401  0.34349322  0.35798550    -0.73200
O1559       O  0.68283005  0.40640731  0.39751412    -0.73800
O1560       O  0.60193710  0.26951730  0.39931738    -0.73200
O1561       O  0.73883631  0.32522796  0.39707399    -0.74000
O1562       O  0.60381910  0.32528819  0.39845780    -0.73400
O1563       O  0.68266949  0.27020059  0.39872227    -0.73800
O1564       O  0.62511420  0.24011094  0.37422224    -0.73700
O1565       O  0.65805300  0.28082004  0.35921559    -0.73500
C1566       C  0.75659275  0.38519189  0.36201932     0.78300
C1567       C  0.71666716  0.41893773  0.40155464     0.78800
C1568       C  0.62246061  0.36228280  0.36145746     0.77700
C1569       C  0.58921850  0.29105950  0.40244614     0.78100
C1570       C  0.71844014  0.29091075  0.40107754     0.79200
C1571       C  0.63565684  0.24697182  0.36301374     0.78300
Zn1572     Zn  0.53010331  0.05707686  0.26479003     1.49700
Zn1573     Zn  0.51154994  0.50360877  0.28795192     1.49400
Zn1574     Zn  0.95339905  0.47874172  0.26601377     1.49100
Zn1575     Zn  0.52853712  0.47005575  0.26547682     1.49500
O1576       O  0.50710297  0.50149836  0.27061762    -1.83000
O1577       O  0.54922178  0.09498978  0.27944863    -0.73600
O1578       O  0.96329366  0.48671916  0.29586878    -0.73400
O1579       O  0.93832482  0.01434286  0.25464109    -0.73000
O1580       O  0.51541265  0.05342742  0.29417979    -0.73600
O1581       O  0.99623604  0.06735384  0.25394312    -0.73200
O1582       O  0.91917432  0.46474773  0.28116687    -0.73800
O1583       O  0.99000796  0.42705147  0.25498166    -0.73200
O1584       O  0.53069099  0.47292742  0.29492371    -0.74000
O1585       O  0.93825281  0.43243896  0.25534453    -0.73400
O1586       O  0.54512672  0.44742102  0.27956941    -0.73800
O1587       O  0.56946206  0.00708128  0.25478907    -0.73700
O1588       O  0.57364340  0.06408545  0.25416517    -0.73500
C1589       C  0.53750439  0.08753180  0.29056327     0.78300
C1590       C  0.92874587  0.47128217  0.29247383     0.78800
C1591       C  0.96111833  0.04838237  0.25070145     0.77700
C1592       C  0.95587563  0.41601283  0.25162579     0.78100
C1593       C  0.54332621  0.45235557  0.29105196     0.79200
C1594       C  0.58509229  0.04156468  0.25089558     0.78300
C1595       C  0.66446356  0.33816840  0.81052761     0.46600
H1596       H  0.66441239  0.33715685  0.82073375    -0.02400
C1597       C  0.66473349  0.34125644  0.78657282     0.46600
H1598       H  0.66465581  0.34258913  0.77635356    -0.02400
C1599       C  0.64413291  0.35827721  0.80518902    -0.16100
C1600       C  0.70513330  0.36051287  0.80475292    -0.15900
C1601       C  0.64399245  0.29795322  0.80429356    -0.16300
C1602       C  0.64457176  0.35969164  0.79262903    -0.16200
C1603       C  0.70464769  0.36158065  0.79214760    -0.15800
C1604       C  0.64468386  0.30039668  0.79166392    -0.16100
C1605       C  0.00197396  0.00134389  0.83804518     0.46600
H1606       H  0.00010850  0.00024221  0.82784825    -0.02400
C1607       C  0.00617272  0.00322528  0.86192336     0.46600
H1608       H  0.00814533  0.00437960  0.87210923    -0.02400
C1609       C  0.51975074  0.04233499  0.84339007    -0.16100
C1610       C  0.95641206  0.47633471  0.84400468    -0.15900
C1611       C  0.51927408  0.48145422  0.84286093    -0.16300
C1612       C  0.52154037  0.04261062  0.85602733    -0.16200
C1613       C  0.95911452  0.47743051  0.85661934    -0.15800
C1614       C  0.52120306  0.48236610  0.85549935    -0.16100
C1615       C  0.67446784  0.32929721  0.53031296     0.46600
H1616       H  0.67420392  0.32859946  0.54054237    -0.02400
C1617       C  0.67534839  0.33114782  0.50636427     0.46600
H1618       H  0.67562192  0.33198388  0.49615574    -0.02400
C1619       C  0.69530554  0.36986313  0.52503970    -0.16100
C1620       C  0.69371115  0.30931668  0.52460016    -0.15900
C1621       C  0.63470378  0.30992672  0.52461600    -0.16300
C1622       C  0.69592023  0.37156995  0.51243601    -0.16200
C1623       C  0.69480632  0.31029852  0.51196024    -0.15800
C1624       C  0.63431943  0.31022195  0.51197490    -0.16100
C1625       C  0.83991736  0.16418126  0.45476318     0.46600
H1626       H  0.84048658  0.16367217  0.44454140    -0.02400
C1627       C  0.83846943  0.16536314  0.47870792     0.46600
H1628       H  0.83783916  0.16563826  0.48891500    -0.02400
C1629       C  0.81772625  0.12425317  0.46048386    -0.16100
C1630       C  0.87936717  0.18269780  0.46068617    -0.15900
C1631       C  0.82151534  0.18584684  0.45987816    -0.16300
C1632       C  0.81683507  0.12442522  0.47310660    -0.16200
C1633       C  0.87945629  0.18383870  0.47330210    -0.15800
C1634       C  0.82041605  0.18667545  0.47248534    -0.16100
Zn1635     Zn  0.87427225  0.22116131  0.59814930     1.49700
Zn1636     Zn  0.86207335  0.13519615  0.59818074     1.49400
Zn1637     Zn  0.84422780  0.16946868  0.62098156     1.49100
Zn1638     Zn  0.78809584  0.14414938  0.59886880     1.49500
O1639       O  0.84218206  0.16758675  0.60355859    -1.83000
O1640       O  0.91689087  0.22498221  0.58757506    -0.73600
O1641       O  0.87227229  0.10889740  0.61261115    -0.73400
O1642       O  0.88465723  0.21789644  0.62777775    -0.73000
O1643       O  0.90981234  0.16677156  0.58814233    -0.73600
O1644       O  0.89882074  0.25963488  0.61265703    -0.73200
O1645       O  0.85266581  0.13075055  0.62776960    -0.73800
O1646       O  0.75340848  0.13314663  0.61381184    -0.73200
O1647       O  0.82388085  0.09408515  0.58686928    -0.74000
O1648       O  0.79697144  0.16026030  0.62855067    -0.73400
O1649       O  0.77010875  0.09513202  0.58888355    -0.73800
O1650       O  0.78345066  0.18165624  0.58786775    -0.73700
O1651       O  0.84175425  0.23449899  0.58742589    -0.73500
C1652       C  0.92736119  0.20154546  0.58443666     0.78300
C1653       C  0.86510535  0.10993624  0.62396000     0.78800
C1654       C  0.90141015  0.25215485  0.62391682     0.77700
C1655       C  0.76250225  0.14342481  0.62497930     0.78100
C1656       C  0.78871525  0.08072894  0.58431942     0.79200
C1657       C  0.80663012  0.21579346  0.58409275     0.78300
Zn1658     Zn  0.50454326  0.00098540  0.69770515     1.49700
Zn1659     Zn  0.55846496  0.03342918  0.71991909     1.49400
Zn1660     Zn  0.97456044  0.02531211  0.72041347     1.49100
Zn1661     Zn  0.97999550  0.45373134  0.72011580     1.49500
O1662       O  0.50438569  0.00161326  0.71508961    -1.83000
O1663       O  0.55385765  0.03645556  0.69035321    -0.73600
O1664       O  0.56597065  0.07911892  0.72920499    -0.73400
O1665       O  0.94975673  0.03711644  0.70588874    -0.73000
O1666       O  0.59610058  0.05513997  0.70545597    -0.73600
O1667       O  0.96991517  0.01548043  0.69083421    -0.73200
O1668       O  0.50889379  0.07390447  0.72990838    -0.73800
O1669       O  0.93299526  0.43922780  0.73064816    -0.73200
O1670       O  0.57152159  0.00309247  0.73150491    -0.74000
O1671       O  0.93041118  0.49266836  0.73102934    -0.73400
O1672       O  0.51748486  0.45101807  0.73105309    -0.73800
O1673       O  0.96648458  0.41478415  0.70579628    -0.73700
O1674       O  0.98733933  0.45667826  0.69051187    -0.73500
C1675       C  0.58810790  0.05480131  0.69410875     0.78300
C1676       C  0.54448095  0.09150571  0.73258174     0.78800
C1677       C  0.95090871  0.03004363  0.69453584     0.77700
C1678       C  0.91757740  0.45796681  0.73430120     0.78100
C1679       C  0.55200419  0.47430407  0.73435408     0.79200
C1680       C  0.97277304  0.42259811  0.69435032     0.78300
C1681       C  0.83279186  0.16670779  0.19737765     0.46600
H1682       H  0.83252252  0.16561525  0.20760193    -0.02400
C1683       C  0.83290619  0.16950124  0.17344946     0.46600
H1684       H  0.83282972  0.17037478  0.16324226    -0.02400
C1685       C  0.79293897  0.14864064  0.19173305    -0.16100
C1686       C  0.85495436  0.20755721  0.19219459    -0.15900
C1687       C  0.85070825  0.14588596  0.19151244    -0.16300
C1688       C  0.79238126  0.14961118  0.17914987    -0.16200
C1689       C  0.85476981  0.20966297  0.17956640    -0.15800
C1690       C  0.85128581  0.14720205  0.17887285    -0.16100
C1691       C  0.49755702  0.00403856  0.14661538     0.46600
H1692       H  0.49736909  0.00359266  0.15682697    -0.02400
C1693       C  0.49826656  0.00584987  0.12276389     0.46600
H1694       H  0.49777312  0.00570761  0.11256874    -0.02400
C1695       C  0.98055190  0.46358360  0.13958535    -0.16100
C1696       C  0.97886856  0.02552795  0.14078675    -0.15900
C1697       C  0.53834721  0.02377154  0.14101142    -0.16300
C1698       C  0.98022681  0.46500853  0.12693294    -0.16200
C1699       C  0.98020080  0.02661878  0.12816037    -0.15800
C1700       C  0.53840332  0.02398774  0.12834132    -0.16100
Zn1701     Zn  0.64076754  0.36463595  0.94222896     1.49700
Zn1702     Zn  0.63365158  0.28211359  0.94188473     1.49400
Zn1703     Zn  0.66109179  0.33521329  0.91830004     1.49100
Zn1704     Zn  0.71740919  0.35947660  0.94126128     1.49500
O1705       O  0.66340035  0.33542358  0.93606601    -1.83000
O1706       O  0.59480365  0.33105669  0.95283232    -0.73600
O1707       O  0.61131148  0.24391988  0.92777331    -0.73400
O1708       O  0.63304323  0.36003604  0.91209591    -0.73000
O1709       O  0.59151275  0.27473085  0.95323061    -0.73600
O1710       O  0.62519808  0.38800114  0.92840754    -0.73200
O1711       O  0.63589328  0.28206303  0.91145311    -0.79200
O1712       O  0.75390522  0.37781900  0.92647156    -0.73200
O1713       O  0.66665442  0.27012428  0.95253312    -0.74000
O1714       O  0.71311233  0.36457053  0.91101936    -0.73400
O1715       O  0.72472658  0.32278650  0.95198921    -0.73800
O1716       O  0.73119878  0.40417775  0.95268514    -0.73700
O1717       O  0.67755937  0.40573334  0.95384600    -0.73500
C1718       C  0.58003354  0.29682622  0.95685468     0.78300
C1719       C  0.61635317  0.24877573  0.91619840     0.78800
C1720       C  0.62234631  0.38144163  0.91687569     0.77700
C1721       C  0.74702652  0.37870786  0.91504623     0.78100
C1722       C  0.70148580  0.28902004  0.95601933     0.79200
C1723       C  0.71182314  0.41766446  0.95725260     0.78300
Zn1724     Zn  0.77776678  0.14054398  0.04186567     1.49700
Zn1725     Zn  0.82796260  0.16404694  0.06612911     1.49400
Zn1726     Zn  0.85690794  0.13980123  0.04317334     1.49100
Zn1727     Zn  0.85828813  0.22016231  0.04299778     1.49500
O1728       O  0.83025230  0.16621906  0.04838479    -1.83000
O1729       O  0.73803975  0.12057622  0.05549925    -0.73600
O1730       O  0.84892965  0.13395277  0.07316974    -0.73400
O1731       O  0.82335161  0.09672290  0.03155961    -0.73000
O1732       O  0.77461419  0.13787012  0.07223964    -0.73600
O1733       O  0.76882238  0.09678832  0.03101955    -0.73200
O1734       O  0.87364935  0.11929797  0.05748733    -0.73800
O1735       O  0.90343183  0.23007421  0.03248407    -0.73200
O1736       O  0.85794935  0.21636798  0.07342114    -0.74000
O1737       O  0.90286802  0.17505993  0.03307585    -0.73400
O1738       O  0.87652611  0.25715283  0.05765009    -0.73800
O1739       O  0.82581098  0.23078136  0.03146297    -0.73700
O1740       O  0.76999496  0.17561373  0.03053372    -0.73500
C1741       C  0.74188569  0.12161963  0.06714995     0.78300
C1742       C  0.86685008  0.11873126  0.06893386     0.78800
C1743       C  0.78962040  0.08378715  0.02740939     0.77700
C1744       C  0.91684190  0.20927335  0.02917070     0.78100
C1745       C  0.87493083  0.25041209  0.06917866     0.79200
C1746       C  0.79214725  0.21025317  0.02706498     0.78300
C1747       C  0.71707129  0.23749122  0.98301617     0.17100
C1748       C  0.71249206  0.21318351  0.99289861    -0.32000
C1749       C  0.74312087  0.22569635  0.00119066     0.21500
C1750       C  0.77676955  0.26086777  0.99970856     0.03700
C1751       C  0.78136574  0.28513233  0.98981682    -0.21700
C1752       C  0.75078158  0.27259573  0.98151441     0.12900
S1753       S  0.68276996  0.22826358  0.97226618    -0.05300
C1754       C  0.71402461  0.27228497  0.96567726    -0.08800
C1755       C  0.74932235  0.29259876  0.97153727    -0.25400
S1756       S  0.81092632  0.27039239  0.01054474    -0.02600
C1757       C  0.77980040  0.22634377  0.01712523    -0.16100
C1758       C  0.74461696  0.20577304  0.01119227    -0.14100
H1759       H  0.68617592  0.18577361  0.99408760     0.21300
H1760       H  0.80764237  0.31259317  0.98864621     0.17400
H1761       H  0.77205923  0.32120314  0.96897654     0.19900
H1762       H  0.72187379  0.17721966  0.01379200     0.13200
C1763       C  0.74214545  0.01647567  0.00012563     0.17100
C1764       C  0.71824821  0.99536034  0.99034494    -0.32000
C1765       C  0.72768187  0.47796054  0.98427960     0.21500
C1766       C  0.76537355  0.48681034  0.98395084     0.03700
C1767       C  0.79166843  0.51026009  0.99299254    -0.21700
C1768       C  0.77884330  0.02271141  0.00114764     0.12900
S1769       S  0.73007066  0.03737421  0.01135479    -0.05300
C1770       C  0.77507837  0.05511187  0.01750983    -0.08800
C1771       C  0.79788989  0.04478019  0.01117727    -0.25400
S1772       S  0.77547786  0.46635088  0.97197855    -0.02600
C1773       C  0.72846811  0.44593416  0.96730578    -0.16100
C1774       C  0.70646295  0.45476023  0.97472396    -0.14100
H1775       H  0.68958647  0.99045108  0.98953512     0.21300
H1776       H  0.82120548  0.51750850  0.99272482     0.17400
H1777       H  0.82732406  0.05424757  0.01348108     0.19900
H1778       H  0.67618134  0.44374832  0.97342817     0.13200
C1779       C  0.51267310  0.28019308  0.98368319     0.17100
C1780       C  0.99166538  0.28394472  0.99309908    -0.32000
C1781       C  0.97895998  0.25724605  0.00276436     0.21500
C1782       C  0.98717606  0.22814148  0.00311890     0.03700
C1783       C  0.50809361  0.22429352  0.99366934    -0.21700
C1784       C  0.52060625  0.25089084  0.98397500     0.12900
S1785       S  0.53203884  0.31063845  0.97144320    -0.05300
C1786       C  0.55120438  0.28371181  0.96667671    -0.08800
C1787       C  0.54235104  0.25248859  0.97416499    -0.25400
S1788       S  0.96713935  0.19727204  0.01522032    -0.02600
C1789       C  0.94707880  0.22360332  0.01978708    -0.16100
C1790       C  0.95632217  0.25506658  0.01238473    -0.14100
H1791       H  0.98512292  0.30655108  0.99283683     0.21300
H1792       H  0.51430087  0.20145168  0.99386114     0.17400
H1793       H  0.55298921  0.23325707  0.97287489     0.19900
H1794       H  0.94513259  0.27388782  0.01353197     0.13200
C1795       C  0.92215474  0.32151205  0.09570248     0.17100
C1796       C  0.94016014  0.34007187  0.10669792    -0.32000
C1797       C  0.94395440  0.37574069  0.10907579     0.21500
C1798       C  0.92981623  0.39183732  0.10096020     0.03700
C1799       C  0.91227000  0.37353269  0.08988412    -0.21700
C1800       C  0.90912824  0.33819889  0.08738901     0.12900
S1801       S  0.91374573  0.27757725  0.09135973    -0.05300
C1802       C  0.89326913  0.28205624  0.07806630    -0.08800
C1803       C  0.89300696  0.31590505  0.07711439    -0.25400
S1804       S  0.93719668  0.43521861  0.10548616    -0.02600
C1805       C  0.96018138  0.43209802  0.11837508    -0.16100
C1806       C  0.96187880  0.39893912  0.11902638    -0.14100
H1807       H  0.95080075  0.32728857  0.11310639     0.21300
H1808       H  0.90172621  0.38638193  0.08346686     0.17400
H1809       H  0.88048034  0.32310972  0.06955669     0.19900
H1810       H  0.47609196  0.39270713  0.12623798     0.13200
C1811       C  0.89031678  0.07349818  0.09566114     0.17100
C1812       C  0.89044339  0.05543984  0.10664355    -0.32000
C1813       C  0.92446905  0.05706367  0.10992886     0.21500
C1814       C  0.95710316  0.07664013  0.10273177     0.03700
C1815       C  0.95694801  0.09453172  0.09174010    -0.21700
C1816       C  0.92267625  0.09202297  0.08828720     0.12900
S1817       S  0.85224854  0.07557982  0.09023477    -0.05300
C1818       C  0.87992715  0.10076614  0.07776551    -0.08800
C1819       C  0.91671017  0.10729306  0.07787430    -0.25400
S1820       S  0.99517245  0.07460027  0.10803777    -0.02600
C1821       C  0.96673466  0.04610529  0.11989176    -0.16100
C1822       C  0.92976929  0.03928997  0.11982319    -0.14100
H1823       H  0.86499755  0.04043085  0.11231020     0.21300
H1824       H  0.98232656  0.10927956  0.08602708     0.17400
H1825       H  0.93839429  0.12387968  0.07102574     0.19900
H1826       H  0.90763885  0.02105583  0.12633750     0.13200
C1827       C  0.62975479  0.05446444  0.10929745     0.17100
C1828       C  0.66538973  0.06320235  0.10467084    -0.32000
C1829       C  0.67474636  0.07807860  0.09268207     0.21500
C1830       C  0.64945521  0.08301765  0.08549070     0.03700
C1831       C  0.61409270  0.07461199  0.09016815    -0.21700
C1832       C  0.60525636  0.06082335  0.10224916     0.12900
S1833       S  0.61240419  0.03590140  0.12354817    -0.05300
C1834       C  0.57240826  0.03856560  0.12017496    -0.08800
C1835       C  0.57278067  0.05212569  0.10842733    -0.25400
S1836       S  0.66606227  0.10136454  0.07117773    -0.02600
C1837       C  0.70809897  0.10381842  0.07510367    -0.16100
C1838       C  0.70863095  0.09023190  0.08677226    -0.14100
H1839       H  0.68510376  0.05907734  0.11020346     0.21300
H1840       H  0.59453166  0.07914525  0.08469734     0.17400
H1841       H  0.55047153  0.05549127  0.10443457     0.19900
H1842       H  0.73280611  0.08989101  0.09077695     0.13200
C1843       C  0.90837082  0.11670451  0.15873515     0.17100
C1844       C  0.93534677  0.11583784  0.15099945    -0.32000
C1845       C  0.94047657  0.08432812  0.15204775     0.21500
C1846       C  0.91940710  0.05466816  0.16028417     0.03700
C1847       C  0.89232749  0.05545907  0.16798965    -0.21700
C1848       C  0.88747151  0.08715688  0.16702305     0.12900
S1849       S  0.89939173  0.15342280  0.15944004    -0.05300
C1850       C  0.86802277  0.12924459  0.17128448    -0.08800
C1851       C  0.86382261  0.09386914  0.17407286    -0.25400
S1852       S  0.92899821  0.01835369  0.15975798    -0.02600
C1853       C  0.96118825  0.04303841  0.14814424    -0.16100
C1854       C  0.96501611  0.07819628  0.14526106    -0.14100
H1855       H  0.95187099  0.13886897  0.14452255     0.21300
H1856       H  0.87593855  0.03252389  0.17450687     0.17400
H1857       H  0.84533953  0.07452047  0.18117472     0.19900
H1858       H  0.48448409  0.09853345  0.13843421     0.13200
C1859       C  0.94693388  0.37476665  0.16050216     0.17100
C1860       C  0.94485465  0.34749338  0.16891252    -0.32000
C1861       C  0.91312396  0.30985728  0.16817990     0.21500
C1862       C  0.88449165  0.29974658  0.15951607     0.03700
C1863       C  0.88638461  0.32715616  0.15115658    -0.21700
C1864       C  0.91828358  0.36482985  0.15185623     0.12900
S1865       S  0.98411376  0.42136702  0.15948858    -0.05300
C1866       C  0.96152787  0.42754140  0.14705354    -0.08800
C1867       C  0.92610176  0.39521023  0.14428779    -0.25400
S1868       S  0.84841502  0.25245496  0.16022726    -0.02600
C1869       C  0.87179373  0.24638003  0.17247790    -0.16100
C1870       C  0.90621305  0.27941052  0.17553137    -0.14100
H1871       H  0.96726713  0.35518194  0.17566488     0.21300
H1872       H  0.86416670  0.31936895  0.14432020     0.17400
H1873       H  0.90751070  0.39358622  0.13688067     0.19900
H1874       H  0.92523003  0.28125349  0.18281976     0.13200
C1875       C  0.70110045  0.12067386  0.16034491     0.17100
C1876       C  0.67223323  0.11960606  0.15297202    -0.32000
C1877       C  0.63549212  0.08638688  0.15349547     0.21500
C1878       C  0.62772314  0.05560690  0.16103442     0.03700
C1879       C  0.65644805  0.05686599  0.16850368    -0.21700
C1880       C  0.69319075  0.08995914  0.16792566     0.12900
S1881       S  0.74759181  0.15832272  0.16113663    -0.05300
C1882       C  0.75620864  0.13266167  0.17195589    -0.08800
C1883       C  0.72470325  0.09654468  0.17451166    -0.25400
S1884       S  0.58203235  0.01692810  0.15972354    -0.02600
C1885       C  0.57361649  0.04200524  0.14864476    -0.16100
C1886       C  0.60426144  0.07903319  0.14655438    -0.14100
H1887       H  0.67823891  0.14340466  0.14698296     0.21300
H1888       H  0.65056970  0.03287397  0.17438069     0.17400
H1889       H  0.72462264  0.07651835  0.18111702     0.19900
H1890       H  0.60432640  0.09862450  0.13976974     0.13200
C1891       C  0.89910575  0.06046029  0.67201288     0.17100
C1892       C  0.87969601  0.07574198  0.66596423    -0.32000
C1893       C  0.87959211  0.07523290  0.65307567     0.21500
C1894       C  0.89763362  0.06009658  0.64640303     0.03700
C1895       C  0.91640583  0.04417011  0.65245127    -0.21700
C1896       C  0.91675852  0.04494718  0.66532733     0.12900
S1897       S  0.90493062  0.06037356  0.68762201    -0.05300
C1898       C  0.93133935  0.03911965  0.68499973    -0.08800
C1899       C  0.93499008  0.03252485  0.67271274    -0.25400
S1900       S  0.89699626  0.06549666  0.63080261    -0.02600
C1901       C  0.87254281  0.08879394  0.63338768    -0.16100
C1902       C  0.86468976  0.09112974  0.64565408    -0.14100
H1903       H  0.86622784  0.08849037  0.67105161     0.21300
H1904       H  0.93110403  0.03272549  0.64735955     0.17400
H1905       H  0.95107014  0.02001693  0.66928611     0.19900
H1906       H  0.85058585  0.10571996  0.64905668     0.13200
C1907       C  0.94413858  0.33736035  0.64622360     0.17100
C1908       C  0.95564309  0.37207252  0.65221617    -0.32000
C1909       C  0.95646853  0.37206494  0.66511464     0.21500
C1910       C  0.94665534  0.33930973  0.67188227     0.03700
C1911       C  0.93566770  0.30463238  0.66587346    -0.21700
C1912       C  0.93459946  0.30457296  0.65294049     0.12900
S1913       S  0.93768137  0.33035202  0.63065364    -0.05300
C1914       C  0.92137431  0.28252351  0.63323635    -0.08800
C1915       C  0.92215880  0.27328039  0.64552873    -0.25400
S1916       S  0.94867674  0.34574333  0.68754930    -0.02600
C1917       C  0.96316039  0.39314408  0.68483789    -0.16100
C1918       C  0.96592568  0.40276277  0.67245405    -0.14100
H1919       H  0.96273528  0.39776974  0.64707308     0.21300
H1920       H  0.92747725  0.27867406  0.67102851     0.17400
H1921       H  0.91180280  0.24451717  0.64898023     0.19900
H1922       H  0.97434216  0.43102432  0.66893664     0.13200
C1923       C  0.67377869  0.10886211  0.67233155     0.17100
C1924       C  0.70972710  0.12896631  0.66666828    -0.32000
C1925       C  0.71065521  0.12814600  0.65377155     0.21500
C1926       C  0.67749242  0.10879056  0.64678091     0.03700
C1927       C  0.64160461  0.08955181  0.65242307    -0.21700
C1928       C  0.64070476  0.08987769  0.66529209     0.12900
S1929       S  0.66615403  0.10322355  0.68788546    -0.05300
C1930       C  0.61795926  0.07484261  0.68475824    -0.08800
C1931       C  0.60873781  0.07072571  0.67234886    -0.25400
S1932       S  0.68488806  0.10853620  0.63133002    -0.02600
C1933       C  0.73322139  0.13461541  0.63433197    -0.16100
C1934       C  0.74271151  0.14338522  0.64665620    -0.14100
H1935       H  0.73578110  0.14340570  0.67205272     0.21300
H1936       H  0.61561811  0.07386723  0.64705515     0.17400
H1937       H  0.58006683  0.05354443  0.66863263     0.19900
H1938       H  0.77160223  0.15862799  0.65029166     0.13200
C1939       C  0.75263417  0.45500775  0.54664659     0.17100
C1940       C  0.78044565  0.48433422  0.55406354    -0.32000
C1941       C  0.76612054  0.01165323  0.55934989     0.21500
C1942       C  0.72895299  0.99215838  0.56383322     0.03700
C1943       C  0.70336356  0.46664862  0.55419630    -0.21700
C1944       C  0.71492405  0.44622286  0.54683619     0.12900
S1945       S  0.76087094  0.42700924  0.53698167    -0.05300
C1946       C  0.71304096  0.40329931  0.53326602    -0.08800
C1947       C  0.69194427  0.41615711  0.53926092    -0.25400
S1948       S  0.72193978  0.01354132  0.57627196    -0.02600
C1949       C  0.76985346  0.04847963  0.57559610    -0.16100
C1950       C  0.78972903  0.04373265  0.56613058    -0.14100
H1951       H  0.80577807  0.01389880  0.54560502     0.21300
H1952       H  0.67393262  0.45982566  0.55423474     0.17400
H1953       H  0.66151298  0.40431549  0.53804118     0.19900
H1954       H  0.81993219  0.06297653  0.56426656     0.13200
C1955       C  0.55751721  0.28775403  0.54834421     0.17100
C1956       C  0.53477735  0.29000701  0.55749788    -0.32000
C1957       C  0.00771522  0.25599072  0.56333748     0.21500
C1958       C  0.00408105  0.22105664  0.56041836     0.03700
C1959       C  0.52744353  0.21866748  0.55125276    -0.21700
C1960       C  0.55375972  0.25288053  0.54521378     0.12900
S1961       S  0.59217730  0.32630985  0.54048635    -0.05300
C1962       C  0.60117902  0.29516199  0.53267987    -0.08800
C1963       C  0.57888072  0.25696184  0.53612607    -0.25400
S1964       S  0.96964746  0.18301302  0.56864704    -0.02600
C1965       C  0.95967997  0.21453735  0.57589979    -0.16100
C1966       C  0.98239006  0.25247046  0.57220435    -0.14100
H1967       H  0.53761683  0.31714927  0.55988987     0.21300
H1968       H  0.52466756  0.19153470  0.54887597     0.17400
H1969       H  0.58190224  0.23390655  0.53250935     0.19900
H1970       H  0.97990916  0.27605772  0.57560805     0.13200
C1971       C  0.71700255  0.25362783  0.54791337     0.17100
C1972       C  0.71561680  0.22819221  0.55692012    -0.32000
C1973       C  0.75005353  0.23738573  0.56275042     0.21500
C1974       C  0.78433827  0.27051307  0.55980359     0.03700
C1975       C  0.78579046  0.29579937  0.55070763    -0.21700
C1976       C  0.75138714  0.28647651  0.54480509     0.12900
S1977       S  0.67806452  0.24859377  0.54026834    -0.05300
C1978       C  0.70854284  0.29059843  0.53258886    -0.08800
C1979       C  0.74670660  0.30780264  0.53592647    -0.25400
S1980       S  0.82290101  0.27647346  0.56797652    -0.02600
C1981       C  0.79263371  0.23356528  0.57531834    -0.16100
C1982       C  0.75461557  0.21605750  0.57163249    -0.14100
H1983       H  0.68884272  0.20251186  0.55933449     0.21300
H1984       H  0.81250801  0.32163442  0.54836585     0.17400
H1985       H  0.76942240  0.33505157  0.53237651     0.19900
H1986       H  0.73162168  0.18886610  0.57512644     0.13200
C1987       C  0.75886851  0.03435909  0.49305008     0.17100
C1988       C  0.73706345  0.50773309  0.50283823    -0.32000
C1989       C  0.73337750  0.47143494  0.50183041     0.21500
C1990       C  0.75441189  0.46455696  0.49335626     0.03700
C1991       C  0.77723413  0.99093668  0.48441063    -0.21700
C1992       C  0.78082128  0.02713507  0.48505998     0.12900
S1993       S  0.76677656  0.07996193  0.49209055    -0.05300
C1994       C  0.79908727  0.08885467  0.48055141    -0.08800
C1995       C  0.80431591  0.05846516  0.47800448    -0.25400
S1996       S  0.74588372  0.41857907  0.49366048    -0.02600
C1997       C  0.71413816  0.40856887  0.50550192    -0.16100
C1998       C  0.70993893  0.43934389  0.50869755    -0.14100
H1999       H  0.72036782  0.51285237  0.50943838     0.21300
H2000       H  0.79453449  0.98556681  0.47814513     0.17400
H2001       H  0.82358846  0.05892284  0.47109167     0.19900
H2002       H  0.69085528  0.43845590  0.51574184     0.13200
C2003       C  0.54328834  0.25114482  0.49207771     0.17100
C2004       C  0.51446102  0.22480169  0.48410297    -0.32000
C2005       C  0.97730227  0.21908982  0.48531260     0.21500
C2006       C  0.96992491  0.24027777  0.49358945     0.03700
C2007       C  0.99884293  0.26673080  0.50147966    -0.21700
C2008       C  0.53546063  0.27152077  0.50055366     0.12900
S2009       S  0.58956663  0.26086841  0.49264564    -0.05300
C2010       C  0.59820238  0.29211740  0.50461216    -0.08800
C2011       C  0.56683378  0.29528799  0.50761900    -0.25400
S2012       S  0.92429416  0.23213295  0.49274475    -0.02600
C2013       C  0.91520070  0.20058666  0.48086003    -0.16100
C2014       C  0.94587359  0.19581153  0.47817673    -0.14100
H2015       H  0.52034832  0.20882355  0.47742374     0.21300
H2016       H  0.99327339  0.28342684  0.50796115     0.17400
H2017       H  0.56668624  0.31366621  0.51475592     0.19900
H2018       H  0.94563070  0.17687012  0.47118381     0.13200
C2019       C  0.75235807  0.28042070  0.49133809     0.17100
C2020       C  0.77813456  0.27882463  0.48313557    -0.32000
C2021       C  0.78199668  0.24633328  0.48366182     0.21500
C2022       C  0.76110234  0.21677794  0.49195107     0.03700
C2023       C  0.73518132  0.21824933  0.50004931    -0.21700
C2024       C  0.73143817  0.25069549  0.49956287     0.12900
S2025       S  0.74420270  0.31771035  0.49256660    -0.05300
C2026       C  0.71291258  0.29328227  0.50446075    -0.08800
C2027       C  0.70857475  0.25770102  0.50697661    -0.25400
S2028       S  0.76983049  0.17990247  0.49119150    -0.02600
C2029       C  0.80154615  0.20400828  0.47941747    -0.16100
C2030       C  0.80532594  0.23920230  0.47646057    -0.14100
H2031       H  0.79462543  0.30196333  0.47669382     0.21300
H2032       H  0.71884420  0.19521083  0.50653973     0.17400
H2033       H  0.68996823  0.23801865  0.51398911     0.19900
H2034       H  0.82388205  0.25838116  0.46932745     0.13200
C2035       C  0.88822372  0.43244633  0.88347490     0.17100
C2036       C  0.87083110  0.41737216  0.89486873    -0.32000
C2037       C  0.83477947  0.41271608  0.89695535     0.21500
C2038       C  0.81671430  0.42219886  0.88800868     0.03700
C2039       C  0.83434945  0.43775887  0.87667978    -0.21700
C2040       C  0.87058050  0.44280313  0.87465654     0.12900
S2041       S  0.93203402  0.44077906  0.87928184    -0.05300
C2042       C  0.92699613  0.45900486  0.86552865    -0.08800
C2043       C  0.89281038  0.45841630  0.86437487    -0.25400
S2044       S  0.77228442  0.41256386  0.89202361    -0.02600
C2045       C  0.77825270  0.39613296  0.90599807    -0.16100
C2046       C  0.81302005  0.39816618  0.90740015    -0.14100
H2047       H  0.88480158  0.40965478  0.90179659     0.21300
H2048       H  0.82040621  0.44548575  0.86974513     0.17400
H2049       H  0.88955883  0.96646062  0.85672371     0.19900
H2050       H  0.82132756  0.38833940  0.91542440     0.13200
C2051       C  0.56090785  0.42914849  0.87398819     0.17100
C2052       C  0.57071408  0.40315284  0.87857306    -0.32000
C2053       C  0.58437997  0.40841838  0.89068364     0.21500
C2054       C  0.58797717  0.43803293  0.89797711     0.03700
C2055       C  0.57881656  0.46448322  0.89329474    -0.21700
C2056       C  0.56538029  0.45934336  0.88113306     0.12900
S2057       S  0.54168093  0.42641270  0.85980931    -0.05300
C2058       C  0.54027865  0.46701530  0.86336822    -0.08800
C2059       C  0.55417283  0.48141295  0.87504556    -0.25400
S2060       S  0.60427328  0.43867474  0.91255512    -0.02600
C2061       C  0.60694249  0.39906924  0.90864598    -0.16100
C2062       C  0.59541495  0.38618519  0.89672019    -0.14100
H2063       H  0.56745540  0.37961792  0.87299737     0.21300
H2064       H  0.58169213  0.48779449  0.89890191     0.17400
H2065       H  0.55552824  0.50644288  0.87903129     0.19900
H2066       H  0.59527977  0.36183580  0.89264775     0.13200
C2067       C  0.57764369  0.13449582  0.87507158     0.17100
C2068       C  0.60488056  0.16987340  0.88017051    -0.32000
C2069       C  0.59520307  0.18089759  0.89111950     0.21500
C2070       C  0.56025259  0.15757084  0.89686602     0.03700
C2071       C  0.53280578  0.12241856  0.89167472    -0.21700
C2072       C  0.54230886  0.11163070  0.88064806     0.12900
S2073       S  0.58423602  0.11540319  0.86203058    -0.05300
C2074       C  0.53835043  0.07690158  0.86391447    -0.08800
C2075       C  0.51964308  0.07848998  0.87427237    -0.25400
S2076       S  0.55459668  0.17568531  0.91031214    -0.02600
C2077       C  0.59941102  0.21543150  0.90798094    -0.16100
C2078       C  0.61761564  0.21438422  0.89739153    -0.14100
H2079       H  0.63241052  0.18795212  0.87582053     0.21300
H2080       H  0.50534041  0.10423052  0.89605060     0.17400
H2081       H  0.49107997  0.05630756  0.87703051     0.19900
H2082       H  0.64584510  0.23689643  0.89448614     0.13200
C2083       C  0.83690887  0.40181223  0.75778148     0.17100
C2084       C  0.81199492  0.37643984  0.76677570    -0.32000
C2085       C  0.78624606  0.38511930  0.77224378     0.21500
C2086       C  0.78479487  0.41719954  0.76873907     0.03700
C2087       C  0.80976651  0.44261277  0.75977594    -0.21700
C2088       C  0.83597411  0.43429078  0.75447319     0.12900
S2089       S  0.87093239  0.39696442  0.75026954    -0.05300
C2090       C  0.88457084  0.43954757  0.74275343    -0.08800
C2091       C  0.86329579  0.45609570  0.74588416    -0.25400
S2092       S  0.75029649  0.42168323  0.77603832    -0.02600
C2093       C  0.73860294  0.38062876  0.78414616    -0.16100
C2094       C  0.75980671  0.36404685  0.78115845    -0.14100
H2095       H  0.81281813  0.35122162  0.76944923     0.21300
H2096       H  0.80890274  0.46780957  0.75708846     0.17400
H2097       H  0.86791037  0.48293895  0.74219335     0.19900
H2098       H  0.75522805  0.33742009  0.78501938     0.13200
C2099       C  0.60334351  0.45313763  0.75990834     0.17100
C2100       C  0.62672966  0.45424913  0.76958342    -0.32000
C2101       C  0.61914442  0.41894056  0.77444494     0.21500
C2102       C  0.58961234  0.38424213  0.76988404     0.03700
C2103       C  0.56592221  0.38321264  0.76042847    -0.21700
C2104       C  0.57353696  0.41831116  0.75556553     0.12900
S2105       S  0.60816717  0.49240140  0.75239373    -0.05300
C2106       C  0.56933829  0.46126496  0.74347747    -0.08800
C2107       C  0.55385349  0.42279543  0.74621724    -0.25400
S2108       S  0.58669509  0.34446003  0.77616998    -0.02600
C2109       C  0.62529634  0.37471855  0.78514357    -0.16100
C2110       C  0.63968723  0.41358046  0.78338281    -0.14100
H2111       H  0.65015337  0.48130009  0.77300362     0.21300
H2112       H  0.54300091  0.35614406  0.75683116     0.17400
H2113       H  0.52933715  0.39928199  0.74162267     0.19900
H2114       H  0.66481089  0.43642780  0.78794430     0.13200
C2115       C  0.58359470  0.21515839  0.77046213     0.17100
C2116       C  0.55429681  0.18332483  0.76422661    -0.32000
C2117       C  0.56496657  0.16762207  0.75469716     0.21500
C2118       C  0.60308462  0.18306391  0.75148212     0.03700
C2119       C  0.63227900  0.21539880  0.75751351    -0.21700
C2120       C  0.62162722  0.23088175  0.76708097     0.12900
S2121       S  0.57683717  0.23742668  0.78263170    -0.05300
C2122       C  0.62574670  0.26779722  0.78315692    -0.08800
C2123       C  0.64593595  0.26151858  0.77424792    -0.25400
S2124       S  0.61047246  0.15820743  0.74036517    -0.02600
C2125       C  0.56165958  0.12670278  0.73998496    -0.16100
C2126       C  0.54092353  0.13547573  0.74798451    -0.14100
H2127       H  0.52458937  0.17083321  0.76686285     0.21300
H2128       H  0.66206138  0.22738143  0.75506147     0.17400
H2129       H  0.67677260  0.27833282  0.77317735     0.19900
H2130       H  0.51017287  0.11826771  0.74922661     0.13200
C2131       C  0.58787676  0.45519787  0.82830133     0.17100
C2132       C  0.61981795  0.45221044  0.82550352    -0.32000
C2133       C  0.61303961  0.41708960  0.82079954     0.21500
C2134       C  0.57607814  0.38636005  0.81894245     0.03700
C2135       C  0.54417704  0.38943479  0.82166224    -0.21700
C2136       C  0.55092665  0.42453502  0.82634563     0.12900
S2137       S  0.58998609  0.49424092  0.83497028    -0.05300
C2138       C  0.54061708  0.46885304  0.83522360    -0.08800
C2139       C  0.52361906  0.43244118  0.83013335    -0.25400
S2140       S  0.57378282  0.34677210  0.81267750    -0.02600
C2141       C  0.62308345  0.37182658  0.81252243    -0.16100
C2142       C  0.64023007  0.40885915  0.81713602    -0.14100
H2143       H  0.64867608  0.47610263  0.82702870     0.21300
H2144       H  0.51531949  0.36544575  0.82021769     0.17400
H2145       H  0.49307579  0.41187281  0.83009896     0.19900
H2146       H  0.67080605  0.42928775  0.81714187     0.13200
C2147       C  0.85418957  0.41146288  0.83168381     0.17100
C2148       C  0.81637889  0.38150499  0.82957581    -0.32000
C2149       C  0.79220862  0.38998806  0.82287204     0.21500
C2150       C  0.80508907  0.42685732  0.81855012     0.03700
C2151       C  0.84277341  0.45698962  0.82080877    -0.21700
C2152       C  0.86708446  0.44836443  0.82739384     0.12900
S2153       S  0.88769742  0.40685683  0.83967658    -0.05300
C2154       C  0.91935725  0.45528992  0.83739169    -0.08800
C2155       C  0.90467591  0.47364454  0.83055968    -0.25400
S2156       S  0.77229489  0.43066834  0.80985449    -0.02600
C2157       C  0.74111370  0.38196774  0.81190134    -0.16100
C2158       C  0.75525559  0.36417309  0.81922311    -0.14100
H2159       H  0.80638154  0.35265344  0.83287972     0.21300
H2160       H  0.85290148  0.48575145  0.81738604     0.17400
H2161       H  0.92419461  0.00505903  0.83011059     0.19900
H2162       H  0.74019390  0.33359697  0.82112335     0.13200
C2163       C  0.58339678  0.20563360  0.82390169     0.17100
C2164       C  0.55856963  0.17734109  0.83233786    -0.32000
C2165       C  0.55236388  0.14000045  0.83113550     0.21500
C2166       C  0.56976705  0.13110396  0.82189021     0.03700
C2167       C  0.59407542  0.15920162  0.81336181    -0.21700
C2168       C  0.60066241  0.19659060  0.81465268     0.12900
S2169       S  0.59564659  0.25295459  0.82387451    -0.05300
C2170       C  0.62399528  0.26058641  0.81116148    -0.08800
C2171       C  0.62409615  0.22788966  0.80742849    -0.25400
S2172       S  0.56068952  0.08494279  0.82251168    -0.02600
C2173       C  0.53412971  0.07766266  0.83562637    -0.16100
C2174       C  0.53116563  0.10921862  0.83884961    -0.14100
H2175       H  0.54529280  0.18430525  0.83967106     0.21300
H2176       H  0.60795824  0.15242722  0.80617848     0.17400
H2177       H  0.64039602  0.22691595  0.79975404     0.19900
H2178       H  0.51571567  0.11024068  0.84676959     0.13200
C2179       C  0.90905566  0.28276079  0.21701154     0.17100
C2180       C  0.93189754  0.30382889  0.22699973    -0.32000
C2181       C  0.92830104  0.33420918  0.23130171     0.21500
C2182       C  0.90296810  0.34318994  0.22595149     0.03700
C2183       C  0.88056349  0.32251276  0.21580116    -0.21700
C2184       C  0.88425696  0.29214759  0.21145940     0.12900
S2185       S  0.90783849  0.24361269  0.21093754    -0.05300
C2186       C  0.87415447  0.24026738  0.20067042    -0.08800
C2187       C  0.86417865  0.26784454  0.20195778    -0.25400
S2188       S  0.90233493  0.38063319  0.23274816    -0.02600
C2189       C  0.93703992  0.38455254  0.24273193    -0.16100
C2190       C  0.94818436  0.35806108  0.24087336    -0.14100
H2191       H  0.95132679  0.29658866  0.23131429     0.21300
H2192       H  0.86088239  0.32953193  0.21155933     0.17400
H2193       H  0.84265552  0.26921114  0.19650132     0.19900
H2194       H  0.96989852  0.35656243  0.24617976     0.13200
C2195       C  0.87230438  0.08895121  0.21495008     0.17100
C2196       C  0.87032513  0.06451029  0.22442881    -0.32000
C2197       C  0.90491104  0.07124353  0.22950868     0.21500
C2198       C  0.93992286  0.10101351  0.22532088     0.03700
C2199       C  0.94192492  0.12503038  0.21567198    -0.21700
C2200       C  0.90731257  0.11831184  0.21059068     0.12900
S2201       S  0.83356763  0.08719642  0.20827892    -0.05300
C2202       C  0.86468753  0.12600306  0.19939557    -0.08800
C2203       C  0.90311599  0.13957447  0.20154196    -0.25400
S2204       S  0.97854936  0.10503216  0.23290286    -0.02600
C2205       C  0.94730829  0.06580661  0.24170108    -0.16100
C2206       C  0.90894155  0.05076622  0.23885459    -0.14100
H2207       H  0.84297629  0.04164038  0.22783773     0.21300
H2208       H  0.96925349  0.14829588  0.21239866     0.17400
H2209       H  0.92655271  0.16455846  0.19710633     0.19900
H2210       H  0.88529357  0.02603496  0.24332093     0.13200
C2211       C  0.66811080  0.06528138  0.22932028     0.17100
C2212       C  0.69857454  0.06679345  0.22296867    -0.32000
C2213       C  0.71704962  0.09566459  0.21411234     0.21500
C2214       C  0.70534631  0.12147321  0.21147171     0.03700
C2215       C  0.67485930  0.11997741  0.21784443    -0.21700
C2216       C  0.65686612  0.09157016  0.22690332     0.12900
S2217       S  0.64235687  0.03265884  0.24050697    -0.05300
C2218       C  0.61678010  0.05526511  0.24216890    -0.08800
C2219       C  0.62746846  0.08608933  0.23432654    -0.25400
S2220       S  0.73181372  0.15450934  0.20042205    -0.02600
C2221       C  0.75898678  0.13344330  0.19956964    -0.16100
C2222       C  0.74807218  0.10261489  0.20734433    -0.14100
H2223       H  0.70778011  0.04667611  0.22494871     0.21300
H2224       H  0.66590802  0.14036801  0.21594837     0.17400
H2225       H  0.61414154  0.10324281  0.23398339     0.19900
H2226       H  0.76207762  0.08626168  0.20800378     0.13200
C2227       C  0.57505125  0.40033511  0.31338561     0.17100
C2228       C  0.58732264  0.37801620  0.31939205    -0.32000
C2229       C  0.58955241  0.37993415  0.33230084     0.21500
C2230       C  0.57990237  0.40270747  0.33897375     0.03700
C2231       C  0.56736773  0.42464043  0.33299210    -0.21700
C2232       C  0.56539834  0.42294500  0.32013560     0.12900
S2233       S  0.57068632  0.40305996  0.29774955    -0.05300
C2234       C  0.55549742  0.43481220  0.30049673    -0.08800
C2235       C  0.55438342  0.44268336  0.31283992    -0.25400
S2236       S  0.58694976  0.40304841  0.35449460    -0.02600
C2237       C  0.60369707  0.37262202  0.35195763    -0.16100
C2238       C  0.60277643  0.36223533  0.33973345    -0.14100
H2239       H  0.59533485  0.36048779  0.31426263     0.21300
H2240       H  0.56011518  0.44278348  0.33810821     0.17400
H2241       H  0.54565972  0.46187787  0.31636558     0.19900
H2242       H  0.61306680  0.34414829  0.33637209     0.13200
C2243       C  0.58082364  0.16690414  0.33958576     0.17100
C2244       C  0.55352656  0.13530172  0.33279280    -0.32000
C2245       C  0.55843878  0.13656054  0.31998914     0.21500
C2246       C  0.58888425  0.16764479  0.31412925     0.03700
C2247       C  0.61601152  0.19920040  0.32090753    -0.21700
C2248       C  0.61129607  0.19781635  0.33368213     0.12900
S2249       S  0.57963254  0.17240371  0.35518044    -0.05300
C2250       C  0.62052300  0.21693504  0.35357357    -0.08800
C2251       C  0.63430144  0.22609105  0.34164319    -0.25400
S2252       S  0.59110296  0.16226782  0.29860443    -0.02600
C2253       C  0.55092003  0.11729726  0.30008226    -0.16100
C2254       C  0.53630963  0.10793548  0.31195122    -0.14100
H2255       H  0.52965852  0.11077847  0.33726482     0.21300
H2256       H  0.64001998  0.22362283  0.31644696     0.17400
H2257       H  0.65886730  0.25325877  0.33878136     0.19900
H2258       H  0.51205512  0.08042668  0.31472265     0.13200
C2259       C  0.84257520  0.43507646  0.34039045     0.17100
C2260       C  0.87819846  0.45092798  0.33462768    -0.32000
C2261       C  0.87874681  0.45254395  0.32174402     0.21500
C2262       C  0.84563680  0.43959619  0.31485333     0.03700
C2263       C  0.81019059  0.42449602  0.32062060    -0.21700
C2264       C  0.80955852  0.42235873  0.33347222     0.12900
S2265       S  0.83491010  0.42704015  0.35586071    -0.05300
C2266       C  0.78671527  0.40583948  0.35284336    -0.08800
C2267       C  0.77760546  0.40603976  0.34056844    -0.25400
S2268       S  0.85224586  0.44227017  0.29929212    -0.02600
C2269       C  0.90012063  0.46090461  0.30213950    -0.16100
C2270       C  0.91011085  0.46501980  0.31449056    -0.14100
H2271       H  0.90413973  0.46044118  0.33990661     0.21300
H2272       H  0.78409164  0.41376722  0.31532009     0.17400
H2273       H  0.74880077  0.39325982  0.33692259     0.19900
H2274       H  0.93880731  0.47588301  0.31799863     0.13200
C2275       C  0.75864660  0.03665161  0.43969068     0.17100
C2276       C  0.73011738  0.00689358  0.43254136    -0.32000
C2277       C  0.73715613  0.49310480  0.42443110     0.21500
C2278       C  0.77460589  0.50114647  0.42402157     0.03700
C2279       C  0.80815859  0.02920620  0.42996500    -0.21700
C2280       C  0.79681121  0.04775950  0.43831386     0.12900
S2281       S  0.75080179  0.06298893  0.45023852    -0.05300
C2282       C  0.79946803  0.08959192  0.45265134    -0.08800
C2283       C  0.82039638  0.07836113  0.44569215    -0.25400
S2284       S  0.78208966  0.47399236  0.41385800    -0.02600
C2285       C  0.73426800  0.45156895  0.41005489    -0.16100
C2286       C  0.71384525  0.46482326  0.41631842    -0.14100
H2287       H  0.70032233  0.99843824  0.43347303     0.21300
H2288       H  0.83799581  0.03787673  0.42896883     0.17400
H2289       H  0.85124674  0.09207799  0.44595208     0.19900
H2290       H  0.68342403  0.45356099  0.41527490     0.13200
C2291       C  0.95882539  0.20313100  0.43821523     0.17100
C2292       C  0.98288330  0.20090838  0.42955264    -0.32000
C2293       C  0.00933426  0.23496607  0.42355399     0.21500
C2294       C  0.51257694  0.26979763  0.42633162     0.03700
C2295       C  0.98784143  0.27182571  0.43478922    -0.21700
C2296       C  0.96165526  0.23791827  0.44084958     0.12900
S2297       S  0.92330905  0.16480711  0.44591671    -0.05300
C2298       C  0.91312983  0.19630370  0.45293767    -0.08800
C2299       C  0.93553320  0.23419285  0.44940351    -0.25400
S2300       S  0.54636846  0.30789295  0.41812543    -0.02600
C2301       C  0.55759377  0.27696557  0.41120495    -0.16100
C2302       C  0.53588268  0.23903419  0.41501052    -0.14100
H2303       H  0.98082316  0.17387060  0.42750152     0.21300
H2304       H  0.49112484  0.29918148  0.43720704     0.17400
H2305       H  0.93186200  0.25731410  0.45257144     0.19900
H2306       H  0.53907586  0.21579195  0.41166966     0.13200
C2307       C  0.77927349  0.26370768  0.42065419     0.17100
C2308       C  0.80882671  0.26235479  0.42678318    -0.32000
C2309       C  0.79847686  0.23459597  0.43603069     0.21500
C2310       C  0.76040261  0.20931545  0.43906455     0.03700
C2311       C  0.73083033  0.21014295  0.43275236    -0.21700
C2312       C  0.74118148  0.23788438  0.42349360     0.12900
S2313       S  0.78593885  0.29674871  0.40969996    -0.05300
C2314       C  0.73685580  0.27533320  0.40884411    -0.08800
C2315       C  0.71665059  0.24409753  0.41662415    -0.25400
S2316       S  0.75383732  0.17854307  0.45081707    -0.02600
C2317       C  0.80283472  0.19988077  0.45156486    -0.16100
C2318       C  0.82300286  0.22892399  0.44309258    -0.14100
H2319       H  0.83858787  0.28242782  0.42457104     0.21300
H2320       H  0.70110132  0.19039904  0.43507064     0.17400
H2321       H  0.68576615  0.22770436  0.41751805     0.19900
H2322       H  0.85391281  0.24501094  0.44220405     0.13200
Zn2323     Zn  0.66253725  0.82479869  0.36407071     1.49700
Zn2324     Zn  0.72124975  0.85197297  0.38593180     1.49400
Zn2325     Zn  0.64569116  0.85840694  0.38708395     1.49100
Zn2326     Zn  0.63709171  0.77339966  0.38747973     1.49500
O2327       O  0.66671316  0.82714122  0.38151061    -1.83000
O2328       O  0.71148307  0.84182951  0.35619755    -0.73600
O2329       O  0.73804723  0.89979297  0.39647844    -0.73400
O2330       O  0.62775020  0.87964156  0.37285747    -0.73000
O2331       O  0.75559125  0.86481308  0.37088203    -0.73600
O2332       O  0.64333252  0.85567954  0.35726914    -0.73200
O2333       O  0.68491760  0.90237384  0.39752722    -0.73800
O2334       O  0.59591286  0.76817287  0.39892535    -0.73200
O2335       O  0.72861205  0.81477727  0.39595769    -0.74000
O2336       O  0.60170865  0.82585325  0.39836898    -0.73400
O2337       O  0.67148949  0.76086534  0.39725954    -0.73800
O2338       O  0.61197503  0.73361819  0.37360065    -0.73700
O2339       O  0.62780294  0.77354376  0.35784317    -0.73500
C2340       C  0.74603717  0.85744181  0.35960910     0.78300
C2341       C  0.71972546  0.91518607  0.40052482     0.78800
C2342       C  0.62975356  0.87526485  0.36131823     0.77700
C2343       C  0.58560687  0.79144743  0.40236795     0.78100
C2344       C  0.70714730  0.78041498  0.39976735     0.79200
C2345       C  0.61073728  0.73983376  0.36216785     0.78300
Zn2346     Zn  0.53623590  0.55460874  0.26456556     1.49700
Zn2347     Zn  0.50207281  0.00413005  0.28754314     1.49400
Zn2348     Zn  0.94758566  0.97781385  0.26482392     1.49100
Zn2349     Zn  0.52503104  0.97384491  0.26580701     1.49500
O2350       O  0.50133803  0.00348740  0.27020219    -1.83000
O2351       O  0.55794785  0.59468520  0.27832063    -0.73600
O2352       O  0.95196076  0.96581545  0.29407573    -0.73400
O2353       O  0.94523368  0.51511990  0.25544103    -0.73000
O2354       O  0.54562561  0.55495154  0.29394522    -0.73600
O2355       O  0.00403421  0.56593634  0.25344604    -0.73200
O2356       O  0.91020058  0.95464797  0.27920201    -0.73800
O2357       O  0.98758898  0.92694921  0.25583167    -0.73200
O2358       O  0.53726778  0.99081424  0.29525465    -0.74000
O2359       O  0.93704976  0.93389080  0.25383991    -0.73400
O2360       O  0.54539955  0.95792890  0.28067849    -0.73800
O2361       O  0.57387573  0.50285012  0.25469832    -0.73700
O2362       O  0.57900916  0.56024858  0.25418208    -0.73500
C2363       C  0.56023542  0.58860323  0.28969342     0.78300
C2364       C  0.91786194  0.95061008  0.29027798     0.78800
C2365       C  0.96849573  0.54803677  0.25085819     0.77700
C2366       C  0.95457102  0.91634347  0.25137542     0.78100
C2367       C  0.54957227  0.96948574  0.29178739     0.79200
C2368       C  0.59012947  0.53751940  0.25093273     0.78300
C2369       C  0.66883485  0.83820259  0.81246293     0.46600
H2370       H  0.66850598  0.83778450  0.82267440    -0.02400
C2371       C  0.66975128  0.83970623  0.78846799     0.46600
H2372       H  0.66993310  0.84039356  0.77824230    -0.02400
C2373       C  0.64825499  0.85752895  0.80672682    -0.16100
C2374       C  0.70959172  0.86033408  0.80678761    -0.15900
C2375       C  0.64899973  0.79775010  0.80650538    -0.16300
C2376       C  0.64905270  0.85818517  0.79415847    -0.16200
C2377       C  0.70955972  0.86068131  0.79418489    -0.15800
C2378       C  0.64980631  0.79917715  0.79387942    -0.16100
C2379       C  0.99590327  0.49870548  0.83749552     0.46600
H2380       H  0.99408884  0.49772280  0.82729592    -0.02400
C2381       C  0.00016693  0.50064353  0.86135226     0.46600
H2382       H  0.00183296  0.50187278  0.87151858    -0.02400
C2383       C  0.51542848  0.53966353  0.84281428    -0.16100
C2384       C  0.96264883  0.97770965  0.84449792    -0.15900
C2385       C  0.52612710  0.98528236  0.84344698    -0.16300
C2386       C  0.51754219  0.54012096  0.85542428    -0.16200
C2387       C  0.96523379  0.97864994  0.85712685    -0.15800
C2388       C  0.52803291  0.98639601  0.85607085    -0.16100
C2389       C  0.66851083  0.83121566  0.53020143     0.46600
H2390       H  0.66772355  0.83120583  0.54042376    -0.02400
C2391       C  0.67020534  0.83071044  0.50627167     0.46600
H2392       H  0.67075149  0.83065904  0.49606231    -0.02400
C2393       C  0.69102151  0.87142211  0.52459148    -0.16100
C2394       C  0.68659082  0.80937410  0.52503156    -0.15900
C2395       C  0.62909604  0.81275930  0.52427151    -0.16300
C2396       C  0.69195400  0.87149932  0.51195210    -0.16200
C2397       C  0.68801331  0.80907286  0.51239218    -0.15800
C2398       C  0.62920224  0.81195736  0.51165514    -0.16100
C2399       C  0.83230984  0.66373844  0.45503026     0.46600
H2400       H  0.83080987  0.66157310  0.44482246    -0.02400
C2401       C  0.83543899  0.66826307  0.47893340     0.46600
H2402       H  0.83692183  0.67014164  0.48912445    -0.02400
C2403       C  0.81421875  0.62491158  0.46140963    -0.16100
C2404       C  0.87295199  0.68631467  0.46001942    -0.15900
C2405       C  0.81177570  0.68288239  0.46033421    -0.16300
C2406       C  0.81574368  0.62652810  0.47400580    -0.16200
C2407       C  0.87532977  0.68911320  0.47261101    -0.15800
C2408       C  0.81316918  0.68562159  0.47292992    -0.16100
Zn2409     Zn  0.86907812  0.72013307  0.59768689     1.49700
Zn2410     Zn  0.86000487  0.63596676  0.59803278     1.49400
Zn2411     Zn  0.83719806  0.66637119  0.62018039     1.49100
Zn2412     Zn  0.78415730  0.64250305  0.59761818     1.49500
O2413       O  0.83768539  0.66644524  0.60281028    -1.83000
O2414       O  0.91242984  0.72521854  0.58725340    -0.73600
O2415       O  0.87074185  0.61154877  0.61270508    -0.73400
O2416       O  0.87813508  0.71380864  0.62729071    -0.73000
O2417       O  0.90798589  0.66823832  0.58820179    -0.73600
O2418       O  0.89263785  0.75705575  0.61259169    -0.73200
O2419       O  0.84205480  0.62521549  0.62734859    -0.73800
O2420       O  0.74762143  0.63037209  0.61214546    -0.73200
O2421       O  0.82316343  0.59351697  0.58697603    -0.74000
O2422       O  0.79036708  0.66022620  0.62692970    -0.73400
O2423       O  0.76920261  0.59476556  0.58755173    -0.73800
O2424       O  0.77909621  0.67953024  0.58659018    -0.73700
O2425       O  0.83654193  0.73344410  0.58683730    -0.73500
C2426       C  0.92438378  0.70280902  0.58435505     0.78300
C2427       C  0.85909043  0.60841586  0.62374248     0.78800
C2428       C  0.89496801  0.74843193  0.62375064     0.77700
C2429       C  0.75607746  0.64246741  0.62318242     0.78100
C2430       C  0.78847800  0.58014201  0.58376320     0.79200
C2431       C  0.80175790  0.71413693  0.58315594     0.78300
Zn2432     Zn  0.50192023  0.50636479  0.69731294     1.49700
Zn2433     Zn  0.55756418  0.53898367  0.71898071     1.49400
Zn2434     Zn  0.97368660  0.53041149  0.72024263     1.49100
Zn2435     Zn  0.98055881  0.94823512  0.72059311     1.49500
O2436       O  0.50303126  0.50739127  0.71463852    -1.83000
O2437       O  0.55076912  0.54073456  0.68954724    -0.73600
O2438       O  0.56562207  0.58367687  0.72878214    -0.73400
O2439       O  0.94972267  0.54379422  0.70587118    -0.73000
O2440       O  0.59428151  0.56128062  0.70428496    -0.73600
O2441       O  0.96712788  0.51930895  0.69089164    -0.73200
O2442       O  0.50839459  0.57764670  0.73080290    -0.73800
O2443       O  0.93401252  0.93441064  0.73134618    -0.73200
O2444       O  0.57133661  0.50858221  0.73024556    -0.74000
O2445       O  0.93266397  0.98854815  0.73186396    -0.73400
O2446       O  0.51843067  0.94490432  0.73179159    -0.73800
O2447       O  0.96718936  0.90941036  0.70617100    -0.73700
O2448       O  0.98903993  0.95163473  0.69095939    -0.73500
C2449       C  0.58529135  0.55980260  0.69299049     0.78300
C2450       C  0.54423261  0.59501545  0.73309205     0.78800
C2451       C  0.94955900  0.53537906  0.69458251     0.77700
C2452       C  0.91973729  0.95393509  0.73529081     0.78100
C2453       C  0.55249836  0.96856156  0.73542807     0.79200
C2454       C  0.97422377  0.91746067  0.69475080     0.78300
C2455       C  0.83683807  0.66517806  0.19788069     0.46600
H2456       H  0.83568364  0.66442176  0.20810630    -0.02400
C2457       C  0.83908705  0.66749332  0.17397136     0.46600
H2458       H  0.83988893  0.66827602  0.16376605    -0.02400
C2459       C  0.79752479  0.64584701  0.19187331    -0.16100
C2460       C  0.85839840  0.70586363  0.19267438    -0.15900
C2461       C  0.85633988  0.64527890  0.19247780    -0.16300
C2462       C  0.79789009  0.64629629  0.17928703    -0.16200
C2463       C  0.85938634  0.70789636  0.18004965    -0.15800
C2464       C  0.85824578  0.64640379  0.17983011    -0.16100
C2465       C  0.50434522  0.50408516  0.14545743     0.46600
H2466       H  0.50464309  0.50361924  0.15566782    -0.02400
C2467       C  0.50396625  0.50575575  0.12163041     0.46600
H2468       H  0.50329222  0.50576442  0.11144448    -0.02400
C2469       C  0.97511429  0.96289544  0.14056361    -0.16100
C2470       C  0.98747082  0.52754180  0.14009100    -0.15900
C2471       C  0.54482161  0.52210494  0.13968269    -0.16300
C2472       C  0.97516539  0.96457802  0.12792797    -0.16200
C2473       C  0.98796094  0.52856372  0.12742640    -0.15800
C2474       C  0.54427205  0.52252097  0.12700920    -0.16100
Zn2475     Zn  0.64693093  0.86415245  0.94123037     1.49700
Zn2476     Zn  0.63798854  0.78064709  0.94097181     1.49400
Zn2477     Zn  0.66539379  0.83376815  0.91742990     1.49100
Zn2478     Zn  0.72186652  0.85763130  0.94041828     1.49500
O2479       O  0.66813874  0.83391947  0.93513516    -1.83000
O2480       O  0.60185604  0.83168412  0.95205937    -0.73600
O2481       O  0.61514695  0.74258442  0.92686846    -0.73400
O2482       O  0.63904850  0.86054488  0.91123413    -0.73000
O2483       O  0.59658482  0.77439195  0.95242652    -0.73600
O2484       O  0.63236522  0.88868430  0.92770094    -0.73200
O2485       O  0.63922106  0.78064896  0.91050873    -0.79200
O2486       O  0.75808528  0.87433584  0.92585890    -0.73200
O2487       O  0.67057392  0.76785480  0.95157965    -0.74000
O2488       O  0.71746730  0.86155259  0.91037872    -0.73400
O2489       O  0.72826888  0.82101510  0.95109574    -0.73800
O2490       O  0.73735562  0.90322976  0.95157663    -0.73700
O2491       O  0.68414259  0.90543306  0.95240994    -0.73500
C2492       C  0.58650717  0.79751241  0.95616323     0.78300
C2493       C  0.61979196  0.74739105  0.91528002     0.78800
C2494       C  0.62953116  0.88272001  0.91616066     0.77700
C2495       C  0.75122874  0.87497679  0.91444555     0.78100
C2496       C  0.70537080  0.78719601  0.95508369     0.79200
C2497       C  0.71832474  0.91745058  0.95584079     0.78300
Zn2498     Zn  0.78661308  0.64947626  0.04169491     1.49700
Zn2499     Zn  0.83701246  0.67134444  0.06573127     1.49400
Zn2500     Zn  0.86432049  0.64586122  0.04294863     1.49100
Zn2501     Zn  0.86788586  0.72769627  0.04241441     1.49500
O2502       O  0.83913281  0.67375260  0.04801429    -1.83000
O2503       O  0.74727936  0.63279771  0.05527737    -0.73600
O2504       O  0.85838668  0.64166776  0.07307590    -0.73400
O2505       O  0.82859814  0.60167188  0.03187300    -0.73000
O2506       O  0.78393504  0.64644372  0.07186449    -0.73600
O2507       O  0.77500713  0.60360669  0.03148185    -0.73200
O2508       O  0.88254167  0.62645364  0.05739614    -0.73800
O2509       O  0.91337968  0.73684530  0.03218358    -0.73200
O2510       O  0.86599386  0.72352780  0.07275805    -0.74000
O2511       O  0.90939626  0.68008968  0.03241057    -0.73400
O2512       O  0.88493864  0.76441525  0.05698286    -0.73800
O2513       O  0.83638622  0.73948137  0.03076821    -0.73700
O2514       O  0.78027893  0.68466012  0.03018650    -0.73500
C2515       C  0.75128042  0.63280172  0.06688749     0.78300
C2516       C  0.87634436  0.62639593  0.06888670     0.78800
C2517       C  0.79453719  0.58899074  0.02803468     0.77700
C2518       C  0.92505994  0.71469812  0.02870221     0.78100
C2519       C  0.88254342  0.75748288  0.06849840     0.79200
C2520       C  0.80247128  0.71907169  0.02656882     0.78300
C2521       C  0.72333929  0.73984110  0.98264717     0.17100
C2522       C  0.71976119  0.71738043  0.99293070    -0.32000
C2523       C  0.75104652  0.73159780  0.00100996     0.21500
C2524       C  0.78438607  0.76666165  0.99899208     0.03700
C2525       C  0.78793368  0.78916836  0.98871918    -0.21700
C2526       C  0.75671965  0.77484821  0.98060637     0.12900
S2527       S  0.68813775  0.72842915  0.97202136    -0.05300
C2528       C  0.71861516  0.77147671  0.96479368    -0.08800
C2529       C  0.75430194  0.79297018  0.97032064    -0.25400
S2530       S  0.81965167  0.77793422  0.00959175    -0.02600
C2531       C  0.78937844  0.73459997  0.01671279    -0.16100
C2532       C  0.75362599  0.71323238  0.01121131    -0.14100
H2533       H  0.69376862  0.68999984  0.99455433     0.21300
H2534       H  0.81393374  0.81653983  0.98708738     0.17400
H2535       H  0.77661254  0.82128169  0.96733794     0.19900
H2536       H  0.73130689  0.68491631  0.01418266     0.13200
C2537       C  0.74062677  0.51518159  0.00265260     0.17100
C2538       C  0.71434090  0.49166032  0.99364713    -0.32000
C2539       C  0.73264187  0.98064150  0.98170311     0.21500
C2540       C  0.76920210  0.98653750  0.98269163     0.03700
C2541       C  0.79333449  0.00802839  0.99245186    -0.21700
C2542       C  0.77839550  0.52423982  0.00231536     0.12900
S2543       S  0.73061889  0.53661271  0.01430351    -0.05300
C2544       C  0.77792577  0.55832791  0.01874181    -0.08800
C2545       C  0.79989274  0.54874475  0.01160706    -0.25400
S2546       S  0.78013054  0.96412564  0.97155501    -0.02600
C2547       C  0.73485942  0.94665567  0.96558553    -0.16100
C2548       C  0.71303140  0.95820927  0.97186915    -0.14100
H2549       H  0.68490057  0.48473997  0.99384397     0.21300
H2550       H  0.82192915  0.01278886  0.99329344     0.17400
H2551       H  0.83037707  0.56063744  0.01275986     0.19900
H2552       H  0.68360320  0.94915856  0.96970674     0.13200
C2553       C  0.52441133  0.78550149  0.98395503     0.17100
C2554       C  0.00592019  0.79121467  0.99384942    -0.32000
C2555       C  0.99038714  0.76284837  0.00299927     0.21500
C2556       C  0.99373096  0.73061163  0.00247383     0.03700
C2557       C  0.51307465  0.72547162  0.99282193    -0.21700
C2558       C  0.52791703  0.75335846  0.98351146     0.12900
S2559       S  0.54521315  0.81651308  0.97195960    -0.05300
C2560       C  0.55893380  0.78594175  0.96627303    -0.08800
C2561       C  0.54750832  0.75328702  0.97332644    -0.25400
S2562       S  0.97043015  0.69813667  0.01394361    -0.02600
C2563       C  0.95539475  0.72795766  0.01939835    -0.16100
C2564       C  0.96877630  0.76172815  0.01278287    -0.14100
H2565       H  0.00307322  0.81621193  0.99423682     0.21300
H2566       H  0.51563584  0.70030675  0.99241810     0.17400
H2567       H  0.55468109  0.73163253  0.97141981     0.19900
H2568       H  0.96104732  0.78305089  0.01454327     0.13200
C2569       C  0.92680681  0.82718216  0.09517043     0.17100
C2570       C  0.94529988  0.84590124  0.10604612    -0.32000
C2571       C  0.94437510  0.87864513  0.10927661     0.21500
C2572       C  0.92521139  0.89176945  0.10211956     0.03700
C2573       C  0.90673784  0.87307649  0.09120125    -0.21700
C2574       C  0.90843464  0.84077120  0.08781843     0.12900
S2575       S  0.92444129  0.78676762  0.08984562    -0.05300
C2576       C  0.89943452  0.78875284  0.07740217    -0.08800
C2577       C  0.89289834  0.81892476  0.07745724    -0.25400
S2578       S  0.92827167  0.93254441  0.10747034    -0.02600
C2579       C  0.95587320  0.93196607  0.11939336    -0.16100
C2580       C  0.96233413  0.90180460  0.11917600    -0.14100
H2581       H  0.96010075  0.83559398  0.11168258     0.21300
H2582       H  0.89222225  0.88358618  0.08551359     0.17400
H2583       H  0.87655771  0.82370467  0.07056673     0.19900
H2584       H  0.48085033  0.89872007  0.12569614     0.13200
C2585       C  0.89984502  0.58028899  0.09561606     0.17100
C2586       C  0.89994361  0.56204073  0.10659281    -0.32000
C2587       C  0.93324937  0.56168342  0.10954934     0.21500
C2588       C  0.96519046  0.57947017  0.10200446     0.03700
C2589       C  0.96496098  0.59728404  0.09097560    -0.21700
C2590       C  0.93141360  0.59689389  0.08787983     0.12900
S2591       S  0.86277880  0.58489799  0.09061173    -0.05300
C2592       C  0.88961890  0.60849140  0.07780205    -0.08800
C2593       C  0.92552228  0.61265912  0.07752267    -0.25400
S2594       S  0.00257863  0.57574205  0.10703157    -0.02600
C2595       C  0.97484135  0.54881627  0.11925389    -0.16100
C2596       C  0.93849117  0.54376099  0.11946896    -0.14100
H2597       H  0.87504786  0.54853569  0.11253415     0.21300
H2598       H  0.98980896  0.61058934  0.08500437     0.17400
H2599       H  0.94669915  0.62778466  0.07040385     0.19900
H2600       H  0.91667820  0.52670134  0.12622018     0.13200
C2601       C  0.63683856  0.55787695  0.10804966     0.17100
C2602       C  0.67347073  0.56950890  0.10366212    -0.32000
C2603       C  0.68361705  0.58740005  0.09210629     0.21500
C2604       C  0.65831912  0.59279529  0.08508401     0.03700
C2605       C  0.62195649  0.58168247  0.08956824    -0.21700
C2606       C  0.61216800  0.56455679  0.10123168     0.12900
S2607       S  0.61852731  0.53539040  0.12177767    -0.05300
C2608       C  0.57802558  0.53741050  0.11868326    -0.08800
C2609       C  0.57868114  0.55289025  0.10723549    -0.25400
S2610       S  0.67568369  0.61373925  0.07108435    -0.02600
C2611       C  0.71775289  0.61606323  0.07492004    -0.16100
C2612       C  0.71795795  0.60115821  0.08636912    -0.14100
H2613       H  0.69322281  0.56497404  0.10902080     0.21300
H2614       H  0.60222694  0.58634477  0.08424187     0.17400
H2615       H  0.55615625  0.55609627  0.10339367     0.19900
H2616       H  0.74190138  0.60006594  0.09022463     0.13200
C2617       C  0.91765057  0.61797437  0.15974856     0.17100
C2618       C  0.94388145  0.61732041  0.15158007    -0.32000
C2619       C  0.95028745  0.58658694  0.15250592     0.21500
C2620       C  0.93142826  0.55767508  0.16115277     0.03700
C2621       C  0.90537237  0.55845612  0.16938992    -0.21700
C2622       C  0.89892992  0.58919682  0.16844423     0.12900
S2623       S  0.90632959  0.65308991  0.16026819    -0.05300
C2624       C  0.87680854  0.62941588  0.17256368    -0.08800
C2625       C  0.87506787  0.59528063  0.17568138    -0.25400
S2626       S  0.94169498  0.52184914  0.16025880    -0.02600
C2627       C  0.97086900  0.54548519  0.14786470    -0.16100
C2628       C  0.97358205  0.58023220  0.14508002    -0.14100
H2629       H  0.95848805  0.63966847  0.14473664     0.21300
H2630       H  0.89054154  0.53595368  0.17616909     0.17400
H2631       H  0.85780216  0.57615372  0.18301931     0.19900
H2632       H  0.49077248  0.59956757  0.13764797     0.13200
C2633       C  0.94601679  0.87402810  0.16124736     0.17100
C2634       C  0.94491085  0.84742317  0.16978565    -0.32000
C2635       C  0.91474510  0.80891879  0.16885736     0.21500
C2636       C  0.88687829  0.79734660  0.15983732     0.03700
C2637       C  0.88783714  0.82401440  0.15135016    -0.21700
C2638       C  0.91798168  0.86254170  0.15228888     0.12900
S2639       S  0.98087555  0.92177741  0.16053301    -0.05300
C2640       C  0.95792678  0.92644344  0.14788715    -0.08800
C2641       C  0.92425441  0.89253089  0.14476510    -0.25400
S2642       S  0.85271236  0.74930768  0.16031810    -0.02600
C2643       C  0.87569653  0.74469020  0.17296243    -0.16100
C2644       C  0.90865628  0.77891514  0.17633274    -0.14100
H2645       H  0.96675087  0.85631661  0.17682275     0.21300
H2646       H  0.86610303  0.81508306  0.14427371     0.17400
H2647       H  0.90553820  0.88963807  0.13722883     0.19900
H2648       H  0.92733674  0.78191685  0.18388429     0.13200
C2649       C  0.70813860  0.61601740  0.15936201     0.17100
C2650       C  0.67982461  0.61508888  0.15173489    -0.32000
C2651       C  0.64292076  0.58207546  0.15208566     0.21500
C2652       C  0.63459013  0.55095770  0.15952952     0.03700
C2653       C  0.66287816  0.55195030  0.16722096    -0.21700
C2654       C  0.69968354  0.58525015  0.16698936     0.12900
S2655       S  0.75435329  0.65398528  0.16058846    -0.05300
C2656       C  0.76219952  0.62871618  0.17175740    -0.08800
C2657       C  0.73062942  0.59228965  0.17405782    -0.25400
S2658       S  0.58847501  0.51284902  0.15806712    -0.02600
C2659       C  0.58053793  0.53893112  0.14718740    -0.16100
C2660       C  0.61182418  0.57568966  0.14522578    -0.14100
H2661       H  0.68623558  0.63913982  0.14581031     0.21300
H2662       H  0.65648767  0.52788211  0.17313596     0.17400
H2663       H  0.73009420  0.57225944  0.18074497     0.19900
H2664       H  0.61231693  0.59594844  0.13862721     0.13200
C2665       C  0.89341406  0.55937388  0.67173151     0.17100
C2666       C  0.86946825  0.56889284  0.66545854    -0.32000
C2667       C  0.87277562  0.57199067  0.65260566     0.21500
C2668       C  0.89836315  0.56561859  0.64622544     0.03700
C2669       C  0.92175111  0.55552318  0.65245836    -0.21700
C2670       C  0.91870279  0.55281760  0.66526111     0.12900
S2671       S  0.89553307  0.55565495  0.68739587    -0.05300
C2672       C  0.93058752  0.54488426  0.68500124    -0.08800
C2673       C  0.93989990  0.54453196  0.67278679    -0.25400
S2674       S  0.90070996  0.57441456  0.63080411    -0.02600
C2675       C  0.86738339  0.58757738  0.63301588    -0.16100
C2676       C  0.85446830  0.58401504  0.64501836    -0.14100
H2677       H  0.84991633  0.57466473  0.67037580     0.21300
H2678       H  0.94226590  0.55105419  0.64758084     0.17400
H2679       H  0.96144493  0.53862870  0.66952826     0.19900
H2680       H  0.83467114  0.59240667  0.64818700     0.13200
C2681       C  0.94347804  0.83275109  0.64644344     0.17100
C2682       C  0.95926929  0.86801762  0.65252657    -0.32000
C2683       C  0.95930644  0.86752061  0.66543274     0.21500
C2684       C  0.94482858  0.83374789  0.67211442     0.03700
C2685       C  0.92989396  0.79849523  0.66601755    -0.21700
C2686       C  0.92944382  0.79894452  0.65308621     0.12900
S2687       S  0.93708342  0.82660325  0.63083849    -0.05300
C2688       C  0.91517757  0.77787556  0.63331016    -0.08800
C2689       C  0.91370473  0.76755410  0.64559902    -0.25400
S2690       S  0.94536701  0.83967562  0.68777989    -0.02600
C2691       C  0.96520132  0.88818664  0.68519950    -0.16100
C2692       C  0.97126979  0.89859515  0.67285141    -0.14100
H2693       H  0.96985776  0.89457115  0.64744551     0.21300
H2694       H  0.91800145  0.77179725  0.67110289     0.17400
H2695       H  0.90004474  0.73827948  0.64897342     0.19900
H2696       H  0.98295262  0.92757712  0.66939336     0.13200
C2697       C  0.66854692  0.61395244  0.67037323     0.17100
C2698       C  0.70387782  0.63521275  0.66441724    -0.32000
C2699       C  0.70425023  0.63148161  0.65160120     0.21500
C2700       C  0.67110926  0.60826486  0.64492917     0.03700
C2701       C  0.63571118  0.58783355  0.65084233    -0.21700
C2702       C  0.63542163  0.59106299  0.66365865     0.12900
S2703       S  0.66200623  0.61150328  0.68598313    -0.05300
C2704       C  0.61419136  0.57915780  0.68333185    -0.08800
C2705       C  0.60424432  0.57144072  0.67101687    -0.25400
S2706       S  0.67824419  0.60486909  0.62960954    -0.02600
C2707       C  0.72645708  0.63470779  0.63228311    -0.16100
C2708       C  0.73599432  0.64710972  0.64436177    -0.14100
H2709       H  0.73003025  0.65266807  0.66956077     0.21300
H2710       H  0.60977908  0.56910443  0.64575645     0.17400
H2711       H  0.57570447  0.55149677  0.66760760     0.19900
H2712       H  0.76490600  0.66497949  0.64781842     0.13200
C2713       C  0.74858299  0.96405885  0.54362393     0.17100
C2714       C  0.77672684  0.99841206  0.54909170    -0.32000
C2715       C  0.76878055  0.50445646  0.56153530     0.21500
C2716       C  0.73124120  0.49614671  0.56155239     0.03700
C2717       C  0.70081763  0.95768957  0.55838828    -0.21700
C2718       C  0.71163504  0.94404654  0.54827485     0.12900
S2719       S  0.75593683  0.94249817  0.53134003    -0.05300
C2720       C  0.70869012  0.90601787  0.53252650    -0.08800
C2721       C  0.68877709  0.91058226  0.54200409    -0.25400
S2722       S  0.72315625  0.52453062  0.57108295    -0.02600
C2723       C  0.77078007  0.54750046  0.57520019    -0.16100
C2724       C  0.79153983  0.53374972  0.56939627    -0.14100
H2725       H  0.80986412  0.49111007  0.55404002     0.21300
H2726       H  0.67186157  0.94196838  0.56195351     0.17400
H2727       H  0.65908209  0.89038223  0.54421005     0.19900
H2728       H  0.82185447  0.54495057  0.57073479     0.13200
C2729       C  0.54986528  0.78973670  0.54715458     0.17100
C2730       C  0.52533576  0.79136872  0.55573945    -0.32000
C2731       C  0.00214589  0.75787658  0.56251343     0.21500
C2732       C  0.00320408  0.72458127  0.56096096     0.03700
C2733       C  0.52784112  0.72332291  0.55258057    -0.21700
C2734       C  0.55084087  0.75639283  0.54554676     0.12900
S2735       S  0.58142666  0.82745286  0.53829013    -0.05300
C2736       C  0.59514560  0.79762052  0.53207619    -0.08800
C2737       C  0.57693542  0.76078406  0.53683417    -0.25400
S2738       S  0.97198674  0.68723307  0.57010991    -0.02600
C2739       C  0.95702949  0.71675423  0.57591677    -0.16100
C2740       C  0.97585482  0.75362542  0.57109957    -0.14100
H2741       H  0.52442994  0.81725619  0.55696663     0.21300
H2742       H  0.52883641  0.69746985  0.55137008     0.17400
H2743       H  0.58353099  0.73906722  0.53438194     0.19900
H2744       H  0.96985567  0.77579584  0.57348404     0.13200
C2745       C  0.70999308  0.75402173  0.54853341     0.17100
C2746       C  0.70902978  0.72823768  0.55733523    -0.32000
C2747       C  0.74396412  0.73650565  0.56259208     0.21500
C2748       C  0.77827758  0.76909848  0.55930762     0.03700
C2749       C  0.77929447  0.79460731  0.55038919    -0.21700
C2750       C  0.74444087  0.78619221  0.54505012     0.12900
S2751       S  0.67064650  0.74998435  0.54144459    -0.05300
C2752       C  0.70110580  0.79134900  0.53345467    -0.08800
C2753       C  0.73950888  0.80768253  0.53631261    -0.25400
S2754       S  0.81743644  0.77432512  0.56690537    -0.02600
C2755       C  0.78741371  0.73183062  0.57447412    -0.16100
C2756       C  0.74903457  0.71489016  0.57124379    -0.14100
H2757       H  0.68224427  0.70299634  0.56001548     0.21300
H2758       H  0.80604968  0.81994875  0.54775656     0.17400
H2759       H  0.76235569  0.83418003  0.53238728     0.19900
H2760       H  0.72608667  0.68809484  0.57498334     0.13200
C2761       C  0.76266421  0.53699858  0.49484794     0.17100
C2762       C  0.73201885  0.00531252  0.50078342    -0.32000
C2763       C  0.72824525  0.96903101  0.50007838     0.21500
C2764       C  0.75035549  0.96188098  0.49213405     0.03700
C2765       C  0.78021819  0.49387792  0.48545757    -0.21700
C2766       C  0.78368240  0.53002340  0.48639310     0.12900
S2767       S  0.76970946  0.58240967  0.49396959    -0.05300
C2768       C  0.80044540  0.59160759  0.48186069    -0.08800
C2769       C  0.80582219  0.56136381  0.47910823    -0.25400
S2770       S  0.74238577  0.91625508  0.49307059    -0.02600
C2771       C  0.70964878  0.90712616  0.50449539    -0.16100
C2772       C  0.70434758  0.93750346  0.50701675    -0.14100
H2773       H  0.71471765  0.01068618  0.50704498     0.21300
H2774       H  0.79654974  0.48861871  0.47874829     0.17400
H2775       H  0.82414273  0.56179905  0.47185743     0.19900
H2776       H  0.68507628  0.93700413  0.51394357     0.13200
C2777       C  0.53882222  0.75457953  0.49138384     0.17100
C2778       C  0.50985256  0.72849198  0.48340522    -0.32000
C2779       C  0.97431186  0.72654784  0.48369828     0.21500
C2780       C  0.96761763  0.74879348  0.49174290     0.03700
C2781       C  0.99669113  0.77505114  0.49961691    -0.21700
C2782       C  0.53198867  0.77681120  0.49938114     0.12900
S2783       S  0.58404275  0.76170158  0.49255750    -0.05300
C2784       C  0.59354864  0.79450189  0.50409360    -0.08800
C2785       C  0.56334803  0.80010493  0.50649515    -0.25400
S2786       S  0.92223878  0.74122393  0.49093079    -0.02600
C2787       C  0.91231872  0.70830005  0.47943874    -0.16100
C2788       C  0.94264807  0.70312792  0.47668492    -0.14100
H2789       H  0.51495098  0.71105114  0.47710420     0.21300
H2790       H  0.99163121  0.79249346  0.50593345     0.17400
H2791       H  0.56402301  0.81998469  0.51319910     0.19900
H2792       H  0.94168566  0.68328298  0.46989228     0.13200
C2793       C  0.74299071  0.77686163  0.49158652     0.17100
C2794       C  0.76655051  0.77405993  0.48279920    -0.32000
C2795       C  0.77331998  0.74362738  0.48399279     0.21500
C2796       C  0.75736158  0.71709510  0.49347263     0.03700
C2797       C  0.73361539  0.71976973  0.50220414    -0.21700
C2798       C  0.72689198  0.75022018  0.50102045     0.12900
S2799       S  0.73197087  0.81216116  0.49202042    -0.05300
C2800       C  0.70596362  0.79128440  0.50521367    -0.08800
C2801       C  0.70520493  0.75795743  0.50871708    -0.25400
S2802       S  0.76893453  0.68217401  0.49322624    -0.02600
C2803       C  0.79489815  0.70301818  0.48005441    -0.16100
C2804       C  0.79511932  0.73589751  0.47633975    -0.14100
H2805       H  0.77915524  0.79474021  0.47538613     0.21300
H2806       H  0.72105686  0.69912804  0.50963042     0.17400
H2807       H  0.68969394  0.74009196  0.51648784     0.19900
H2808       H  0.81016686  0.75312802  0.46838135     0.13200
C2809       C  0.89378777  0.93039802  0.88364312     0.17100
C2810       C  0.87620847  0.91516646  0.89500362    -0.32000
C2811       C  0.83941085  0.90895678  0.89679720     0.21500
C2812       C  0.82083448  0.91691355  0.88759752     0.03700
C2813       C  0.83849888  0.93234847  0.87631281    -0.21700
C2814       C  0.87544359  0.93915468  0.87460612     0.12900
S2815       S  0.93876959  0.94144015  0.87978233    -0.05300
C2816       C  0.93306051  0.95867944  0.86591413    -0.08800
C2817       C  0.89787822  0.95569609  0.86447849    -0.25400
S2818       S  0.77599329  0.90634416  0.89128226    -0.02600
C2819       C  0.78235725  0.89153025  0.90546198    -0.16100
C2820       C  0.81752060  0.89469013  0.90720190    -0.14100
H2821       H  0.89068467  0.90883026  0.90214470     0.21300
H2822       H  0.82417785  0.93902172  0.86920902     0.17400
H2823       H  0.88508100  0.46990718  0.85666284     0.19900
H2824       H  0.82613152  0.88615967  0.91545856     0.13200
C2825       C  0.56481960  0.93111766  0.87458851     0.17100
C2826       C  0.57231892  0.90362018  0.87926028    -0.32000
C2827       C  0.58978682  0.91051781  0.89081192     0.21500
C2828       C  0.59934042  0.94325252  0.89752608     0.03700
C2829       C  0.59226856  0.97117444  0.89275296    -0.21700
C2830       C  0.57478353  0.96424808  0.88111494     0.12900
S2831       S  0.54211601  0.92678331  0.86101238    -0.05300
C2832       C  0.54664135  0.97058932  0.86387641    -0.08800
C2833       C  0.56444562  0.98709042  0.87498950    -0.25400
S2834       S  0.61946650  0.94524495  0.91156377    -0.02600
C2835       C  0.61527891  0.90180293  0.90814748    -0.16100
C2836       C  0.59910363  0.88690052  0.89679587    -0.14100
H2837       H  0.56450000  0.87772728  0.87416062     0.21300
H2838       H  0.59966239  0.99685027  0.89790954     0.17400
H2839       H  0.56895790  0.01402994  0.87849804     0.19900
H2840       H  0.59432048  0.86003032  0.89311431     0.13200
C2841       C  0.57732723  0.63222629  0.87416155     0.17100
C2842       C  0.60506059  0.66789859  0.87898344    -0.32000
C2843       C  0.59677401  0.67903853  0.89018526     0.21500
C2844       C  0.56289119  0.65540582  0.89645285     0.03700
C2845       C  0.53508800  0.61998088  0.89157410    -0.21700
C2846       C  0.54299643  0.60925717  0.88027396     0.12900
S2847       S  0.58171949  0.61305643  0.86076753    -0.05300
C2848       C  0.53609779  0.57457365  0.86325247    -0.08800
C2849       C  0.51926964  0.57622370  0.87404803    -0.25400
S2850       S  0.55861203  0.67361292  0.91005935    -0.02600
C2851       C  0.60244952  0.71394896  0.90711148    -0.16100
C2852       C  0.61944809  0.71297919  0.89621118    -0.14100
H2853       H  0.63174167  0.68621243  0.87419911     0.21300
H2854       H  0.50836837  0.60166265  0.89634097     0.17400
H2855       H  0.49111648  0.55420820  0.87719654     0.19900
H2856       H  0.64697262  0.73584447  0.89291907     0.13200
C2857       C  0.84144410  0.89970813  0.75973869     0.17100
C2858       C  0.81577496  0.87383913  0.76850414    -0.32000
C2859       C  0.79148420  0.88363227  0.77445497     0.21500
C2860       C  0.79266791  0.91764643  0.77179898     0.03700
C2861       C  0.81867546  0.94371914  0.76316937    -0.21700
C2862       C  0.84288632  0.93388495  0.75720879     0.12900
S2863       S  0.87279667  0.89290090  0.75130578    -0.05300
C2864       C  0.88815765  0.93667431  0.74432591    -0.08800
C2865       C  0.86967906  0.95524385  0.74842510    -0.25400
S2866       S  0.75922849  0.92314868  0.77940694    -0.02600
C2867       C  0.74406686  0.87958337  0.78639999    -0.16100
C2868       C  0.76363964  0.86167871  0.78290866    -0.14100
H2869       H  0.81445652  0.84708555  0.77048179     0.21300
H2870       H  0.81958640  0.97020525  0.76105348     0.17400
H2871       H  0.87562190  0.98300727  0.74517936     0.19900
H2872       H  0.75692499  0.83359486  0.78607249     0.13200
C2873       C  0.60647756  0.94877546  0.76049172     0.17100
C2874       C  0.63204194  0.95057199  0.76949220    -0.32000
C2875       C  0.62383066  0.91593122  0.77505531     0.21500
C2876       C  0.59154239  0.88114951  0.77184502     0.03700
C2877       C  0.56572725  0.87949854  0.76303606    -0.21700
C2878       C  0.57404587  0.91399144  0.75743065     0.12900
S2879       S  0.61182254  0.98712329  0.75226903    -0.05300
C2880       C  0.56985147  0.95580172  0.74468780    -0.08800
C2881       C  0.55284028  0.91786828  0.74843652    -0.25400
S2882       S  0.58780234  0.84196267  0.77896316    -0.02600
C2883       C  0.62982706  0.87276225  0.78643319    -0.16100
C2884       C  0.64595130  0.91125674  0.78355255    -0.14100
H2885       H  0.65753309  0.97760343  0.77187847     0.21300
H2886       H  0.54065042  0.85236513  0.76046715     0.17400
H2887       H  0.52638174  0.89430099  0.74474300     0.19900
H2888       H  0.67297354  0.93421473  0.78714791     0.13200
C2889       C  0.58762072  0.71089110  0.77393726     0.17100
C2890       C  0.55786730  0.67851400  0.76805938    -0.32000
C2891       C  0.56720940  0.66503347  0.75759586     0.21500
C2892       C  0.60457827  0.68261306  0.75331165     0.03700
C2893       C  0.63427226  0.71490518  0.75917966    -0.21700
C2894       C  0.62485381  0.72865829  0.76951776     0.12900
S2895       S  0.58213090  0.73257365  0.78649918    -0.05300
C2896       C  0.63053741  0.76561945  0.78574286    -0.08800
C2897       C  0.64958514  0.76028087  0.77622638    -0.25400
S2898       S  0.61044337  0.66123276  0.74079228    -0.02600
C2899       C  0.56194323  0.62846231  0.74122458    -0.16100
C2900       C  0.54242064  0.63401055  0.75059257    -0.14100
H2901       H  0.52874003  0.66464259  0.77143217     0.21300
H2902       H  0.66340415  0.72877840  0.75581083     0.17400
H2903       H  0.67984139  0.77879058  0.77429216     0.19900
H2904       H  0.51210664  0.61554711  0.75244038     0.13200
C2905       C  0.59274866  0.95682851  0.82860264     0.17100
C2906       C  0.62446456  0.95414851  0.82524319    -0.32000
C2907       C  0.61761970  0.91829519  0.82128681     0.21500
C2908       C  0.58079038  0.88642947  0.82071183     0.03700
C2909       C  0.54900495  0.88917557  0.82398195    -0.21700
C2910       C  0.55584033  0.92514604  0.82785776     0.12900
S2911       S  0.59538905  0.99705471  0.83448804    -0.05300
C2912       C  0.54628572  0.97109923  0.83589026    -0.08800
C2913       C  0.52890938  0.93337131  0.83184640    -0.25400
S2914       S  0.57850054  0.84585177  0.81528264    -0.02600
C2915       C  0.62760456  0.87212301  0.81379412    -0.16100
C2916       C  0.64462231  0.91023790  0.81730388    -0.14100
H2917       H  0.65327898  0.97889121  0.82578197     0.21300
H2918       H  0.52021494  0.86436451  0.82352541     0.17400
H2919       H  0.49858741  0.91241253  0.83266837     0.19900
H2920       H  0.67490262  0.93128858  0.81642746     0.13200
C2921       C  0.86136775  0.91112567  0.83172447     0.17100
C2922       C  0.82389902  0.88060849  0.82947973    -0.32000
C2923       C  0.79842125  0.88910010  0.82362187     0.21500
C2924       C  0.80978444  0.92639939  0.82016729     0.03700
C2925       C  0.84724276  0.95691166  0.82239849    -0.21700
C2926       C  0.87275649  0.94838268  0.82820554     0.12900
S2927       S  0.89596837  0.90702710  0.83923348    -0.05300
C2928       C  0.92594267  0.95609422  0.83773872    -0.08800
C2929       C  0.91001874  0.97426157  0.83148792    -0.25400
S2930       S  0.77533829  0.93051606  0.81261531    -0.02600
C2931       C  0.74546404  0.88140460  0.81396043    -0.16100
C2932       C  0.76133040  0.86313855  0.82016143    -0.14100
H2933       H  0.81498777  0.85147304  0.83218474     0.21300
H2934       H  0.85617418  0.98603415  0.81966512     0.17400
H2935       H  0.92007852  0.50417668  0.82856850     0.19900
H2936       H  0.74729389  0.83229761  0.82139127     0.13200
C2937       C  0.58459943  0.70433462  0.82480916     0.17100
C2938       C  0.55631895  0.67469266  0.83213100    -0.32000
C2939       C  0.55106262  0.63775351  0.83101632     0.21500
C2940       C  0.57265985  0.63048494  0.82288795     0.03700
C2941       C  0.60066594  0.66001643  0.81550604    -0.21700
C2942       C  0.60630589  0.69701695  0.81675233     0.12900
S2943       S  0.59544274  0.75117199  0.82465022    -0.05300
C2944       C  0.62928898  0.76087289  0.81351329    -0.08800
C2945       C  0.63226203  0.72934460  0.81041046    -0.25400
S2946       S  0.56372664  0.58440678  0.82350282    -0.02600
C2947       C  0.53149431  0.57507714  0.83513766    -0.16100
C2948       C  0.52690202  0.60586963  0.83790458    -0.14100
H2949       H  0.53953582  0.68028346  0.83854835     0.21300
H2950       H  0.61783614  0.65455550  0.80921695     0.17400
H2951       H  0.65151964  0.72974075  0.80350051     0.19900
H2952       H  0.50856327  0.60561822  0.84512874     0.13200
C2953       C  0.91179133  0.78300359  0.21700444     0.17100
C2954       C  0.93655794  0.80674811  0.22627295    -0.32000
C2955       C  0.92959908  0.83420108  0.23131924     0.21500
C2956       C  0.89899483  0.83751425  0.22744097     0.03700
C2957       C  0.87424092  0.81381682  0.21813629    -0.21700
C2958       C  0.88157025  0.78674788  0.21294782     0.12900
S2959       S  0.91517240  0.74759409  0.20990567    -0.05300
C2960       C  0.87625697  0.73858756  0.20115112    -0.08800
C2961       C  0.86098012  0.76121405  0.20376720    -0.25400
S2962       S  0.89561204  0.87277218  0.23467764    -0.02600
C2963       C  0.93629329  0.88364266  0.24285000    -0.16100
C2964       C  0.95117293  0.86064573  0.24015493    -0.14100
H2965       H  0.96032789  0.80406191  0.22937202     0.21300
H2966       H  0.85051922  0.81655547  0.21502008     0.17400
H2967       H  0.83581236  0.75848820  0.19938393     0.19900
H2968       H  0.97671764  0.86351025  0.24428918     0.13200
C2969       C  0.87869497  0.59293215  0.21735373     0.17100
C2970       C  0.87734783  0.57049063  0.22736674    -0.32000
C2971       C  0.91189945  0.57428888  0.23128185     0.21500
C2972       C  0.94633966  0.59972928  0.22558523     0.03700
C2973       C  0.94765158  0.62200577  0.21551344    -0.21700
C2974       C  0.91301718  0.61784169  0.21149238     0.12900
S2975       S  0.84007015  0.59315848  0.21148121    -0.05300
C2976       C  0.87025991  0.62654895  0.20086291    -0.08800
C2977       C  0.90833930  0.63722219  0.20194570    -0.25400
S2978       S  0.98514646  0.60045747  0.23178805    -0.02600
C2979       C  0.95459975  0.56554294  0.24200658    -0.16100
C2980       C  0.91640061  0.55436282  0.24068003    -0.14100
H2981       H  0.85053005  0.55092681  0.23190483     0.21300
H2982       H  0.97448767  0.64169601  0.21100912     0.17400
H2983       H  0.93133934  0.65870595  0.19629353     0.19900
H2984       H  0.89320523  0.53271593  0.24623727     0.13200
C2985       C  0.67009193  0.55971040  0.22826278     0.17100
C2986       C  0.69701315  0.55879965  0.22060412    -0.32000
C2987       C  0.71919210  0.59091302  0.21315916     0.21500
C2988       C  0.71471281  0.62252754  0.21323696     0.03700
C2989       C  0.68793190  0.62354674  0.22096865    -0.21700
C2990       C  0.66588986  0.59147065  0.22847882     0.12900
S2991       S  0.64013682  0.52334251  0.23786041    -0.05300
C2992       C  0.62199269  0.55137023  0.24229666    -0.08800
C2993       C  0.63836607  0.58691407  0.23658141    -0.25400
S2994       S  0.74488553  0.65883427  0.20361391    -0.02600
C2995       C  0.76329973  0.63085656  0.19949744    -0.16100
C2996       C  0.74745046  0.59576981  0.20535705    -0.14100
H2997       H  0.70058700  0.53418713  0.22047440     0.21300
H2998       H  0.68452467  0.64827712  0.22115810     0.17400
H2999       H  0.63013984  0.60801270  0.23812401     0.19900
H3000       H  0.75661079  0.57530475  0.20410097     0.13200
C3001       C  0.58973468  0.92491185  0.31387117     0.17100
C3002       C  0.60229238  0.90254349  0.31961204    -0.32000
C3003       C  0.60500807  0.90396462  0.33248162     0.21500
C3004       C  0.59583728  0.92655966  0.33944608     0.03700
C3005       C  0.58344875  0.94916533  0.33368700    -0.21700
C3006       C  0.58067093  0.94771227  0.32077883     0.12900
S3007       S  0.58259336  0.92573645  0.29837133    -0.05300
C3008       C  0.56690174  0.95696055  0.30122095    -0.08800
C3009       C  0.56792800  0.96641358  0.31355895    -0.25400
S3010       S  0.60130975  0.92385484  0.35502364    -0.02600
C3011       C  0.61651051  0.89227981  0.35200401    -0.16100
C3012       C  0.61666098  0.88428610  0.33959888    -0.14100
H3013       H  0.60928442  0.88453735  0.31430571     0.21300
H3014       H  0.57602292  0.96681340  0.33900560     0.17400
H3015       H  0.55838681  0.98488691  0.31713326     0.19900
H3016       H  0.62528115  0.86519114  0.33591252     0.13200
C3017       C  0.58730681  0.66268222  0.33868379     0.17100
C3018       C  0.58993263  0.63576663  0.33148463    -0.32000
C3019       C  0.58599862  0.63749792  0.31874270     0.21500
C3020       C  0.57903743  0.66419243  0.31331266     0.03700
C3021       C  0.57631222  0.69109554  0.32051930    -0.21700
C3022       C  0.58073545  0.68967969  0.33327217     0.12900
S3023       S  0.59583773  0.66837637  0.35415704    -0.05300
C3024       C  0.59222618  0.70859872  0.35320057    -0.08800
C3025       C  0.58267481  0.71552785  0.34161107    -0.25400
S3026       S  0.57151829  0.65883161  0.29776919    -0.02600
C3027       C  0.57680025  0.61958243  0.29875246    -0.16100
C3028       C  0.58579320  0.61261191  0.31040228    -0.14100
H3029       H  0.59532016  0.61470612  0.33560742     0.21300
H3030       H  0.57121497  0.71233279  0.31638081     0.17400
H3031       H  0.58133075  0.74067085  0.33915347     0.19900
H3032       H  0.58815843  0.58805575  0.31286937     0.13200
C3033       C  0.82903628  0.88895433  0.33718947     0.17100
C3034       C  0.86448018  0.90483256  0.33135891    -0.32000
C3035       C  0.86510123  0.90924846  0.31857268     0.21500
C3036       C  0.83211994  0.89787303  0.31177257     0.03700
C3037       C  0.79653501  0.88091791  0.31756412    -0.21700
C3038       C  0.79598207  0.87714904  0.33037778     0.12900
S3039       S  0.82238884  0.88479305  0.35276139    -0.05300
C3040       C  0.77463728  0.86728965  0.34997698    -0.08800
C3041       C  0.76469927  0.86425815  0.33765777    -0.25400
S3042       S  0.83968633  0.90894497  0.29646079    -0.02600
C3043       C  0.88777621  0.92925287  0.29936140    -0.16100
C3044       C  0.89697707  0.92681817  0.31148033    -0.14100
H3045       H  0.89059147  0.91475732  0.33658691     0.21300
H3046       H  0.77063338  0.87249376  0.31239108     0.17400
H3047       H  0.73615745  0.85445339  0.33419402     0.19900
H3048       H  0.92577882  0.93876871  0.31504990     0.13200
C3049       C  0.75437295  0.53995759  0.44031461     0.17100
C3050       C  0.72610201  0.51218801  0.43260195    -0.32000
C3051       C  0.74150431  0.98876836  0.42405630     0.21500
C3052       C  0.77953492  0.99926523  0.42285106     0.03700
C3053       C  0.80289625  0.52908471  0.43164405    -0.21700
C3054       C  0.79189294  0.54825585  0.43974389     0.12900
S3055       S  0.74718299  0.56722528  0.45059199    -0.05300
C3056       C  0.79512325  0.58977905  0.45405424    -0.08800
C3057       C  0.81550318  0.57711903  0.44756494    -0.25400
S3058       S  0.78705916  0.97281906  0.41222383    -0.02600
C3059       C  0.73847823  0.94776383  0.40923617    -0.16100
C3060       C  0.71795774  0.95954774  0.41622355    -0.14100
H3061       H  0.69683641  0.50581875  0.43293044     0.21300
H3062       H  0.83221474  0.53561328  0.43127273     0.17400
H3063       H  0.84608850  0.58907531  0.44833336     0.19900
H3064       H  0.68718685  0.94687011  0.41576185     0.13200
C3065       C  0.95108114  0.70611481  0.43686999     0.17100
C3066       C  0.97547018  0.70340841  0.42846715    -0.32000
C3067       C  0.00420635  0.73754973  0.42308726     0.21500
C3068       C  0.50874236  0.77268970  0.42609961     0.03700
C3069       C  0.98402221  0.77552903  0.43433520    -0.21700
C3070       C  0.95554824  0.74141151  0.43983766     0.12900
S3071       S  0.91410618  0.66788953  0.44416278    -0.05300
C3072       C  0.90545842  0.69987013  0.45159041    -0.08800
C3073       C  0.92932524  0.73801103  0.44837415    -0.25400
S3074       S  0.54470161  0.81062284  0.41832905    -0.02600
C3075       C  0.55458187  0.77873268  0.41135027    -0.16100
C3076       C  0.53125729  0.74078970  0.41496157    -0.14100
H3077       H  0.97213262  0.67593578  0.42620700     0.21300
H3078       H  0.48755648  0.80282382  0.43676140     0.17400
H3079       H  0.92721752  0.76166284  0.45195867     0.19900
H3080       H  0.53327043  0.71692378  0.41153880     0.13200
C3081       C  0.76630517  0.75221475  0.41949120     0.17100
C3082       C  0.79589593  0.75150629  0.42573351    -0.32000
C3083       C  0.78592650  0.72623960  0.43567238     0.21500
C3084       C  0.74812494  0.70243998  0.43928289     0.03700
C3085       C  0.71827795  0.70254071  0.43284361    -0.21700
C3086       C  0.72833516  0.72806555  0.42287459     0.12900
S3087       S  0.77322110  0.78325206  0.40786784    -0.05300
C3088       C  0.72442010  0.76369561  0.40749297    -0.08800
C3089       C  0.70394076  0.73410430  0.41583709    -0.25400
S3090       S  0.74256584  0.67448298  0.45182879    -0.02600
C3091       C  0.79163728  0.69530251  0.45204926    -0.16100
C3092       C  0.81089864  0.72193815  0.44287879    -0.14100
H3093       H  0.82552572  0.77041643  0.42310922     0.21300
H3094       H  0.68871747  0.68411801  0.43560064     0.17400
H3095       H  0.67321833  0.71929187  0.41710479     0.19900
H3096       H  0.84164081  0.73720249  0.44154900     0.13200
loop_ 
_geom_bond_atom_site_label_1 
_geom_bond_atom_site_label_2 
_geom_bond_distance 
_geom_bond_site_symmetry_2 
_ccdc_geom_bond_type 
Zn1           O5   1.884       .  S
Zn1           O6   1.942       .  S
Zn1          O10   1.942       .  S
Zn1          O17   1.926       .  S
Zn2           O5   1.950       .  S
Zn2           O7   1.995       .  S
Zn2           O9   2.040       .  S
Zn2          O13   2.012       .  S
Zn3           O5   1.953       .  S
Zn3           O8   2.054       .  S
Zn3          O11   2.020       .  S
Zn3          O14   1.992       .  S
Zn4           O5   1.964       .  S
Zn4          O12   2.015       .  S
Zn4          O15   2.030       .  S
Zn4          O16   2.056       .  S
O6           C18   1.263       .  A
O7           C19   1.272       .  A
O8           C20   1.276       .  A
O9           C18   1.272       .  A
O10          C20   1.263       .  A
O11          C19   1.275       .  A
O12          C21   1.275       .  A
O13          C22   1.275       .  A
O14          C21   1.272       .  A
O15          C22   1.277       .  A
O16          C23   1.275       .  A
O17          C23   1.264       .  A
C18         C718   1.465       .  S
C19         C737   1.465       .  S
C20         C689   1.468       .  S
C21         C753   1.463       .  S
C22         C766   1.471       .  S
C23         C702   1.466       .  S
Zn24        O802   1.950       .  S
Zn24         O29   2.067       .  S
Zn24         O40   2.015       .  S
Zn24       O1581   2.025   1_455  S
Zn25         O28   1.890       .  S
Zn25         O36   1.932       .  S
Zn25       O1578   1.941   1_455  S
Zn25        O806   1.926       .  S
Zn26       O1576   1.964       .  S
Zn26         O34   2.044       .  S
Zn26         O37   2.018       .  S
Zn26        O805   2.029       .  S
Zn27         O28   1.967       .  S
Zn27         O38   2.069       .  S
Zn27       O1583   2.005   1_455  S
Zn27        O813   2.005       .  S
O28        Zn798   1.960       .  S
O28       Zn1574   1.962   1_455  S
O29          C41   1.278       .  A
O30       Zn1573   1.940       .  S
O30          C42   1.264       .  A
O31        Zn800   2.035   1_545  S
O31          C43   1.276       .  A
O32        Zn799   1.929       .  S
O32          C41   1.263       .  A
O33       Zn1572   2.025       .  S
O33          C43   1.275       .  A
O34          C42   1.275       .  A
O35       Zn1575   2.006       .  S
O35          C44   1.274       .  A
O36          C45   1.262       .  A
O37          C44   1.275       .  A
O38          C45   1.274       .  A
O39        Zn801   2.003   1_545  S
O39          C46   1.274       .  A
O40          C46   1.276       .  A
C41         C705   1.467       .  S
C42         C721   1.464       .  S
C43         C657   1.477       .  S
C44         C641   1.465       .  S
C45         C686   1.472       .  S
C46         C670   1.463       .  S
C47          H48   1.111       .  S
C47          C53   1.555       .  S
C47          C52   1.554       .  S
C47          C51   1.545       .  S
C49          H50   1.113       .  S
C49          C55   1.518       .  S
C49          C54   1.522       .  S
C49          C56   1.525       .  S
C51          C54   1.367       .  D
C51         C593   1.474       .  S
C52          C55   1.372       .  D
C52         C609   1.480       .  S
C53          C56   1.376       .  D
C53         C622   1.498       .  S
C54         C561   1.464       .  S
C55         C545   1.473       .  S
C56         C574   1.467       .  S
C57          H58   1.111       .  S
C57        C2385   1.549   1_545  S
C57         C836   1.548   1_545  S
C57        C1609   1.550       .  S
C59          H60   1.110       .  S
C59         C839   1.526   1_545  S
C59        C1612   1.528       .  S
C59        C2388   1.524   1_545  S
C61        C1605   1.550       .  S
C61          C64   1.376       .  D
C61         C625   1.497       .  S
C62         C831   1.553       .  S
C62          C65   1.375       .  D
C62         C606   1.480       .  S
C63        C2379   1.551   1_455  S
C63          C66   1.376       .  D
C63         C590   1.476       .  S
C64        C1607   1.528       .  S
C64         C526   1.471       .  S
C65         C833   1.523       .  S
C65         C494   1.484       .  S
C66        C2381   1.527       .  S
C66         C510   1.492       .  S
C67          H68   1.113       .  S
C67          C73   1.520       .  S
C67          C72   1.526       .  S
C67          C71   1.522       .  S
C69          H70   1.111       .  S
C69          C75   1.552       .  S
C69          C74   1.554       .  S
C69          C76   1.557       .  S
C71          C74   1.372       .  D
C71         C398   1.469       .  S
C72          C75   1.376       .  D
C72         C430   1.473       .  S
C73          C76   1.374       .  D
C73         C414   1.467       .  S
C74         C449   1.491       .  S
C75         C478   1.492       .  S
C76         C462   1.492       .  S
C77          H78   1.113       .  S
C77          C83   1.529       .  S
C77          C82   1.521       .  S
C77          C81   1.522       .  S
C79          H80   1.111       .  S
C79          C85   1.552       .  S
C79          C84   1.550       .  S
C79          C86   1.550       .  S
C81          C84   1.373       .  D
C81         C734   1.477       .  S
C82          C85   1.373       .  D
C82         C750   1.459       .  S
C83          C86   1.373       .  D
C83         C769   1.472       .  S
C84         C446   1.477       .  S
C85         C465   1.495       .  S
C86         C481   1.491       .  S
Zn87         O91   1.960       .  S
Zn87         O92   2.026       .  S
Zn87         O96   2.078       .  S
Zn87        O103   2.036       .  S
Zn88         O91   1.962       .  S
Zn88         O93   2.055       .  S
Zn88         O95   2.013       .  S
Zn88         O99   2.009       .  S
Zn89         O91   1.898       .  S
Zn89         O94   1.947       .  S
Zn89         O97   1.922       .  S
Zn89        O100   1.951       .  S
Zn90         O91   1.963       .  S
Zn90         O98   2.048       .  S
Zn90        O101   2.045       .  S
Zn90        O102   2.020       .  S
O92         C104   1.277       .  A
O93         C105   1.275       .  A
O94         C106   1.263       .  A
O95         C104   1.274       .  A
O96         C106   1.278       .  A
O97         C105   1.262       .  A
O98         C107   1.276       .  A
O99         C108   1.273       .  A
O100        C107   1.265       .  A
O101        C108   1.276       .  A
O102        C109   1.276       .  A
O103        C109   1.278       .  A
C104        C417   1.471       .  S
C105        C353   1.464       .  S
C106        C366   1.475       .  S
C107        C385   1.467       .  S
C108        C401   1.473       .  S
C109        C433   1.476       .  S
Zn110       O114   1.892       .  S
Zn110       O115   1.941       .  S
Zn110      O1667   1.918   1_455  S
Zn110      O2448   1.931   1_445  S
Zn111       O114   1.965       .  S
Zn111       O116   1.997       .  S
Zn111       O118   2.054       .  S
Zn111       O122   2.015       .  S
Zn112      O1662   1.971       .  S
Zn112       O117   2.058       .  S
Zn112      O1668   2.030       .  S
Zn112       O897   2.015   1_545  S
Zn113      O2436   1.966       .  S
Zn113       O121   2.042       .  S
Zn113       O125   2.082       .  S
Zn113      O1672   2.005       .  S
O114      Zn1660   1.972   1_455  S
O114      Zn2435   1.973   1_445  S
O115        C127   1.263       .  A
O116        C128   1.272       .  A
O117        C129   1.275       .  A
O118        C127   1.274       .  A
O119      Zn1658   1.918       .  S
O119        C129   1.262       .  A
O120      Zn1660   2.030   1_455  S
O120        C128   1.276       .  A
O121        C130   1.278       .  A
O122        C905   1.275   1_545  A
O123       Zn886   2.013       .  S
O123        C130   1.274       .  A
O124      Zn1661   2.004   1_455  S
O124        C131   1.276       .  A
O125        C132   1.277       .  A
O126      Zn2432   1.930       .  S
O126        C132   1.262       .  A
C127        C382   1.469       .  S
C128        C577   1.467       .  S
C129        C350   1.465       .  S
C130        C542   1.476       .  S
C131        O896   1.275       .  A
C131        C558   1.466       .  S
C132        C369   1.475       .  S
C133        H134   1.113       .  S
C133        C139   1.518       .  S
C133        C138   1.528       .  S
C133        C137   1.523       .  S
C135        H136   1.111       .  S
C135        C141   1.549       .  S
C135        C140   1.547       .  S
C135        C142   1.559       .  S
C137        C140   1.369       .  D
C137        C673   1.465       .  S
C138        C141   1.376       .  D
C138        C638   1.469       .  S
C139        C142   1.375       .  D
C139        C654   1.478       .  S
C140        C334   1.486       .  S
C141        C321   1.493       .  S
C142        C302   1.485       .  S
C143        H144   1.111       .  S
C143        C149   1.551   1_655  S
C143       C1696   1.556       .  S
C143       C2469   1.551   1_545  S
C145        H146   1.109       .  S
C145        C152   1.529   1_655  S
C145       C1699   1.518       .  S
C145       C2472   1.525   1_545  S
C147       C2465   1.550       .  S
C147        C150   1.377       .  D
C147        C318   1.493       .  S
C148       C1691   1.556       .  S
C148        C151   1.374       .  D
C148        C305   1.486       .  S
C149        C152   1.378       .  D
C149        C337   1.484       .  S
C150       C2467   1.530       .  S
C150        C257   1.481       .  S
C151       C1693   1.518       .  S
C151        C273   1.476       .  S
C152        C286   1.489       .  S
Zn153       O157   1.964       .  S
Zn153       O158   2.018       .  S
Zn153       O162   2.046       .  S
Zn153       O169   2.014       .  S
Zn154       O157   1.961       .  S
Zn154       O159   2.036       .  S
Zn154       O161   2.012       .  S
Zn154       O165   2.015       .  S
Zn155       O157   1.935       .  S
Zn155       O160   1.992       .  S
Zn155       O163   1.997       .  S
Zn155       O166   1.983       .  S
Zn156       O157   1.974       .  S
Zn156       O164   2.053       .  S
Zn156       O167   2.031       .  S
Zn156       O168   2.029       .  S
O158        C170   1.273       .  A
O159        C171   1.275       .  A
O160        C172   1.271       .  A
O161        C170   1.273       .  A
O162        C172   1.276       .  A
O163        C171   1.270       .  A
O164        C173   1.277       .  A
O165        C174   1.273       .  A
O166        C173   1.269       .  A
O167        C174   1.275       .  A
O168        C175   1.275       .  A
O169        C175   1.274       .  A
C170        C238   1.472       .  S
C171        C529   1.466       .  S
C172        C513   1.473       .  S
C173        C497   1.470       .  S
C174        C206   1.477       .  S
C175        C225   1.475       .  S
Zn176       O180   1.964       .  S
Zn176       O181   2.032       .  S
Zn176       O185   2.006       .  S
Zn176       O192   2.027       .  S
Zn177       O180   1.932       .  S
Zn177       O182   1.971       .  S
Zn177       O184   1.980       .  S
Zn177       O188   1.990       .  S
Zn178       O180   1.968       .  S
Zn178       O183   2.015       .  S
Zn178       O186   2.039       .  S
Zn178       O189   1.999       .  S
Zn179       O180   1.965       .  S
Zn179       O187   2.025       .  S
Zn179       O190   2.049       .  S
Zn179       O191   2.023       .  S
O181        C193   1.274       .  A
O182        C194   1.265       .  A
O183        C195   1.274       .  A
O184        C193   1.269       .  A
O185        C195   1.273       .  A
O186        C194   1.274       .  A
O187        C196   1.275       .  A
O188        C197   1.270       .  A
O189        C196   1.271       .  A
O190        C197   1.277       .  A
O191        C198   1.274       .  A
O192        C198   1.274       .  A
C193        C289   1.464       .  S
C194        C270   1.461       .  S
C195        C222   1.469       .  S
C196        C241   1.470       .  S
C197        C254   1.468       .  S
C198        C209   1.478       .  S
C199        S205   1.707       .  A
C199        C204   1.386       .  A
C199        C200   1.404       .  A
C200        C201   1.404   1_556  A
C200        H211   1.083       .  S
C201        C210   1.374       .  A
C201        C202   1.386   1_554  A
C202        S208   1.707   1_556  A
C202        C203   1.403       .  A
C203        C204   1.403       .  A
C203        H212   1.083       .  S
C204        C207   1.373       .  A
S205        C206   1.725       .  A
C206        C207   1.389       .  A
C207        H213   1.083       .  S
S208        C209   1.725       .  A
C209        C210   1.389       .  A
C210        H214   1.083       .  S
C215        S221   1.703       .  A
C215        C220   1.387       .  A
C215        C216   1.397   1_544  A
C216        C991   1.399       .  A
C216        H227   1.083       .  S
C217        C226   1.369       .  A
C217        C218   1.386       .  A
C217        C990   1.402       .  A
C218        S224   1.710       .  A
C218        C219   1.403       .  A
C219        C994   1.404   1_556  A
C219        H228   1.083       .  S
C220        C223   1.370       .  A
C220        C993   1.404   1_554  A
S221        C222   1.722       .  A
C222        C223   1.388       .  A
C223        H229   1.083       .  S
S224        C225   1.725       .  A
C225        C226   1.387       .  A
C226        H230   1.083       .  S
C231        S237   1.706       .  A
C231        C236   1.387       .  A
C231       C1780   1.401   1_455  A
C232        C233   1.402   1_556  A
C232       C1779   1.401       .  A
C232        H243   1.082       .  S
C233        C242   1.370       .  A
C233        C234   1.387       .  A
C234        S240   1.705       .  A
C234       C1783   1.401   1_554  A
C235        C236   1.403       .  A
C235       C1782   1.401   1_456  A
C235        H244   1.081       .  S
C236        C239   1.370       .  A
S237        C238   1.723       .  A
C238        C239   1.388       .  A
C239        H245   1.082       .  S
S240        C241   1.724       .  A
C241        C242   1.386       .  A
C242        H246   1.082       .  S
C247        S253   1.703       .  A
C247        C252   1.388       .  A
C247        C248   1.402       .  A
C248        C249   1.401       .  A
C248        H259   1.083       .  S
C249        C258   1.372       .  A
C249        C250   1.387       .  A
C250        S256   1.702       .  A
C250        C251   1.402       .  A
C251        C252   1.401       .  A
C251        H260   1.083       .  S
C252        C255   1.373       .  A
S253        C254   1.723       .  A
C254        C255   1.385       .  A
C255        H261   1.083       .  S
S256        C257   1.724       .  A
C257        C258   1.386       .  A
C258       H1810   1.083       .  S
H262       C1806   1.083       .  S
C263        S269   1.702       .  A
C263        C268   1.388       .  A
C263        C264   1.401       .  A
C264        C265   1.400       .  A
C264        H275   1.084       .  S
C265        C274   1.372       .  A
C265        C266   1.387       .  A
C266        S272   1.697       .  A
C266        C267   1.399       .  A
C267        C268   1.398       .  A
C267        H276   1.085       .  S
C268        C271   1.370       .  A
S269        C270   1.722       .  A
C270        C271   1.382       .  A
C271        H277   1.084       .  S
S272        C273   1.720       .  A
C273        C274   1.385       .  A
C274        H278   1.084       .  S
C279        S285   1.709       .  A
C279        C284   1.383       .  A
C279        C280   1.401       .  A
C280        C281   1.404       .  A
C280        H291   1.083       .  S
C281        C290   1.366       .  A
C281        C282   1.387       .  A
C282        S288   1.707       .  A
C282        C283   1.396       .  A
C283        C284   1.400       .  A
C283        H292   1.083       .  S
C284        C287   1.361       .  A
S285        C286   1.728       .  A
C286        C287   1.387       .  A
C287        H293   1.078       .  S
S288        C289   1.718       .  A
C289        C290   1.387       .  A
C290        H294   1.083       .  S
C295        S301   1.713       .  A
C295        C300   1.386       .  A
C295        C296   1.403       .  A
C296        C297   1.405       .  A
C296        H307   1.083       .  S
C297        C306   1.369       .  A
C297        C298   1.386       .  A
C298        S304   1.713       .  A
C298        C299   1.402       .  A
C299        C300   1.405       .  A
C299        H308   1.083       .  S
C300        C303   1.368       .  A
S301        C302   1.722       .  A
C302        C303   1.390       .  A
C303        H309   1.082       .  S
S304        C305   1.722       .  A
C305        C306   1.390       .  A
C306       H1858   1.083       .  S
H310       C1854   1.083       .  S
C311        S317   1.711       .  A
C311        C316   1.386       .  A
C311        C312   1.403       .  A
C312        C313   1.404       .  A
C312        H323   1.084       .  S
C313        C322   1.373       .  A
C313        C314   1.385       .  A
C314        S320   1.714       .  A
C314        C315   1.407       .  A
C315        C316   1.408       .  A
C315        H324   1.084       .  S
C316        C319   1.376       .  A
S317        C318   1.723       .  A
C318        C319   1.393       .  A
C319        H325   1.083       .  S
S320        C321   1.726       .  A
C321        C322   1.390       .  A
C322        H326   1.083       .  S
C327        S333   1.715       .  A
C327        C332   1.386       .  A
C327        C328   1.405       .  A
C328        C329   1.407       .  A
C328        H339   1.082       .  S
C329        C338   1.372       .  A
C329        C330   1.386       .  A
C330        S336   1.712       .  A
C330        C331   1.403       .  A
C331        C332   1.405       .  A
C331        H340   1.083       .  S
C332        C335   1.370       .  A
S333        C334   1.722       .  A
C334        C335   1.390       .  A
C335        H341   1.083       .  S
S336        C337   1.721       .  A
C337        C338   1.390       .  A
C338        H342   1.083       .  S
C343        S349   1.713       .  A
C343        C348   1.386       .  A
C343        C344   1.395       .  A
C344        C345   1.401       .  A
C344        H355   1.084       .  S
C345        C354   1.355       .  A
C345        C346   1.386       .  A
C346        S352   1.712       .  A
C346        C347   1.395       .  A
C347        C348   1.401       .  A
C347        H356   1.084       .  S
C348        C351   1.355       .  A
S349        C350   1.719       .  A
C350        C351   1.388       .  A
C351        H357   1.084       .  S
S352        C353   1.718       .  A
C353        C354   1.388       .  A
C354        H358   1.084       .  S
C359        S365   1.714       .  A
C359        C364   1.386       .  A
C359        C360   1.398       .  A
C360        C361   1.403       .  A
C360        H371   1.083       .  S
C361        C370   1.360       .  A
C361        C362   1.385       .  A
C362        S368   1.720       .  A
C362        C363   1.402       .  A
C363        C364   1.407       .  A
C363        H372   1.082       .  S
C364        C367   1.365       .  A
S365        C366   1.720       .  A
C366        C367   1.392       .  A
C367        H373   1.083       .  S
S368        C369   1.723       .  A
C369        C370   1.389       .  A
C370        H374   1.083       .  S
C375        S381   1.714       .  A
C375        C380   1.386       .  A
C375        C376   1.400       .  A
C376        C377   1.404       .  A
C376        H387   1.081       .  S
C377        C386   1.363       .  A
C377        C378   1.386       .  A
C378        S384   1.709       .  A
C378        C379   1.396       .  A
C379        C380   1.401       .  A
C379        H388   1.082       .  S
C380        C383   1.360       .  A
S381        C382   1.721       .  A
C382        C383   1.387       .  A
C383        H389   1.083       .  S
S384        C385   1.718       .  A
C385        C386   1.389       .  A
C386        H390   1.082       .  S
C391        S397   1.709       .  A
C391        C396   1.388       .  A
C391        C392   1.400       .  A
C392       C1167   1.402       .  A
C392       H1177   1.083       .  S
C393        C402   1.368       .  A
C393        C394   1.387   1_545  A
C393       C1166   1.403   1_545  A
C394        S400   1.713   1_565  A
C394       C1169   1.403       .  A
C395        C396   1.401       .  A
C395       C1168   1.400       .  A
C395        H404   1.083       .  S
C396        C399   1.366       .  A
S397        C398   1.718       .  A
C398        C399   1.382       .  A
C399        H405   1.082       .  S
S400        C401   1.723       .  A
C401        C402   1.386       .  A
C402        H406   1.083       .  S
H403       C1166   1.083   1_545  S
C407        S413   1.700       .  A
C407        C412   1.388       .  A
C407        C408   1.398       .  A
C408       C1957   1.399       .  A
C408        H419   1.080       .  S
C409        C418   1.368       .  A
C409        C410   1.387       .  A
C409       C1956   1.399       .  A
C410        S416   1.708       .  A
C410       C1959   1.404       .  A
C411        C412   1.404       .  A
C411       C1958   1.404       .  A
C411        H420   1.081       .  S
C412        C415   1.372       .  A
S413        C414   1.717       .  A
C414        C415   1.383       .  A
C415        H421   1.082       .  S
S416        C417   1.726       .  A
C417        C418   1.385       .  A
C418        H422   1.081       .  S
C423        S429   1.707       .  A
C423        C428   1.388       .  A
C423        C424   1.402       .  A
C424        C425   1.403       .  A
C424        H435   1.082       .  S
C425        C434   1.371       .  A
C425        C426   1.386       .  A
C426        S432   1.709       .  A
C426        C427   1.404       .  A
C427        C428   1.404       .  A
C427        H436   1.082       .  S
C428        C431   1.373       .  A
S429        C430   1.720       .  A
C430        C431   1.384       .  A
C431        H437   1.082       .  S
S432        C433   1.724       .  A
C433        C434   1.388       .  A
C434        H438   1.083       .  S
C439        S445   1.712       .  A
C439        C444   1.386       .  A
C439       C1214   1.401       .  A
C440        C441   1.408       .  A
C440       C1213   1.405       .  A
C440        H451   1.083       .  S
C441        C450   1.371       .  A
C441        C442   1.385       .  A
C442        S448   1.715       .  A
C442       C1217   1.402       .  A
C443        C444   1.403   1_565  A
C443       C1216   1.400       .  A
C443        H452   1.083       .  S
C444        C447   1.365       .  A
S445        C446   1.720       .  A
C446        C447   1.386       .  A
C447        H453   1.082       .  S
S448        C449   1.721       .  A
C449        C450   1.393       .  A
C450        H454   1.081       .  S
C455        S461   1.718       .  A
C455        C460   1.385       .  A
C455        C456   1.406       .  A
C456       C2005   1.409   1_455  A
C456        H467   1.083       .  S
C457        C466   1.372       .  A
C457        C458   1.385       .  A
C457       C2004   1.409       .  A
C458        S464   1.716       .  A
C458        C459   1.404       .  A
C459       C2008   1.406       .  A
C459        H468   1.083       .  S
C460        C463   1.371       .  A
C460       C2007   1.406   1_455  A
S461        C462   1.725       .  A
C462        C463   1.391       .  A
C463        H469   1.081       .  S
S464        C465   1.723       .  A
C465        C466   1.394       .  A
C466        H470   1.080       .  S
C471        S477   1.717       .  A
C471        C476   1.385       .  A
C471        C472   1.408       .  A
C472        C473   1.409       .  A
C472        H483   1.083       .  S
C473        C482   1.376       .  A
C473        C474   1.386       .  A
C474        S480   1.712       .  A
C474        C475   1.403       .  A
C475        C476   1.405       .  A
C475        H484   1.083       .  S
C476        C479   1.372       .  A
S477        C478   1.726       .  A
C478        C479   1.389       .  A
C479        H485   1.081       .  S
S480        C481   1.722       .  A
C481        C482   1.393       .  A
C482        H486   1.082       .  S
C487        S493   1.701       .  A
C487        C492   1.386       .  A
C487        C488   1.402       .  A
C488        C489   1.401       .  A
C488        H499   1.082       .  S
C489        C498   1.373       .  A
C489        C490   1.388       .  A
C490        S496   1.702       .  A
C490        C491   1.402       .  A
C491        C492   1.401       .  A
C491        H500   1.082       .  S
C492        C495   1.372       .  A
S493        C494   1.725       .  A
C494        C495   1.387       .  A
C495       H1275   1.081       .  S
S496        C497   1.725       .  A
C497        C498   1.385       .  A
C498        H502   1.083       .  S
H501       C1269   1.080       .  S
C503        S509   1.705       .  A
C503        C508   1.384       .  A
C503        C504   1.399       .  A
C504        C505   1.402       .  A
C504        H515   1.083       .  S
C505        C514   1.366       .  A
C505        C506   1.386       .  A
C506        S512   1.713       .  A
C506        C507   1.402       .  A
C507        C508   1.405       .  A
C507        H516   1.082       .  S
C508        C511   1.368       .  A
S509        C510   1.726       .  A
C510        C511   1.391       .  A
C511        H517   1.082       .  S
S512        C513   1.723       .  A
C513        C514   1.387       .  A
C514        H518   1.083       .  S
C519        S525   1.707       .  A
C519        C524   1.387       .  A
C519        C520   1.399       .  A
C520        C521   1.402       .  A
C520        H531   1.083       .  S
C521        C530   1.367       .  A
C521        C522   1.387       .  A
C522        S528   1.708       .  A
C522        C523   1.399       .  A
C523        C524   1.401       .  A
C523        H532   1.083       .  S
C524        C527   1.365       .  A
S525        C526   1.722       .  A
C526        C527   1.383       .  A
C527        H533   1.083   1_455  S
S528        C529   1.720       .  A
C529        C530   1.386       .  A
C530        H534   1.083       .  S
C535        S541   1.709       .  A
C535        C540   1.387       .  A
C535        C536   1.403       .  A
C536        C537   1.403       .  A
C536        H547   1.082       .  S
C537        C546   1.372       .  A
C537        C538   1.388       .  A
C538        S544   1.708       .  A
C538        C539   1.402       .  A
C539        C540   1.403       .  A
C539        H548   1.082       .  S
C540        C543   1.371       .  A
S541        C542   1.723       .  A
C542        C543   1.389       .  A
C543        H549   1.083       .  S
S544        C545   1.720       .  A
C545        C546   1.383       .  A
C546        H550   1.082       .  S
C551        S557   1.710       .  A
C551        C556   1.387       .  A
C551        C552   1.404       .  A
C552        C553   1.405       .  A
C552        H563   1.083       .  S
C553        C562   1.370       .  A
C553        C554   1.389       .  A
C554        S560   1.700       .  A
C554        C555   1.394       .  A
C555        C556   1.396       .  A
C555        H564   1.083       .  S
C556        C559   1.362       .  A
S557        C558   1.725       .  A
C558        C559   1.381       .  A
C559        H565   1.083       .  S
S560        C561   1.714       .  A
C561        C562   1.384       .  A
C562        H566   1.083       .  S
C567        S573   1.707       .  A
C567        C572   1.388       .  A
C567        C568   1.401       .  A
C568        C569   1.402       .  A
C568        H579   1.083       .  S
C569        C578   1.370       .  A
C569        C570   1.388       .  A
C570        S576   1.703       .  A
C570        C571   1.399       .  A
C571        C572   1.399       .  A
C571        H580   1.083       .  S
C572        C575   1.366       .  A
S573        C574   1.720       .  A
C574        C575   1.381       .  A
C575        H581   1.083       .  S
S576        C577   1.722       .  A
C577        C578   1.385       .  A
C578        H582   1.083       .  S
C583        S589   1.708       .  A
C583        C588   1.388       .  A
C583        C584   1.404       .  A
C584        C585   1.404       .  A
C584        H595   1.083       .  S
C585        C594   1.374       .  A
C585        C586   1.387       .  A
C586        S592   1.707       .  A
C586        C587   1.403       .  A
C587        C588   1.403       .  A
C587        H596   1.083       .  S
C588        C591   1.374       .  A
S589        C590   1.723       .  A
C590        C591   1.385       .  A
C591        H597   1.083   1_455  S
S592        C593   1.721       .  A
C593        C594   1.385       .  A
C594        H598   1.083       .  S
C599        S605   1.707       .  A
C599        C604   1.387       .  A
C599        C600   1.403       .  A
C600        C601   1.403       .  A
C600        H611   1.083       .  S
C601        C610   1.375       .  A
C601        C602   1.387       .  A
C602        S608   1.706       .  A
C602        C603   1.405       .  A
C603        C604   1.404       .  A
C603        H612   1.084       .  S
C604        C607   1.376       .  A
S605        C606   1.724       .  A
C606        C607   1.387       .  A
C607       H1387   1.083       .  S
S608        C609   1.726       .  A
C609        C610   1.384       .  A
C610        H614   1.083       .  S
H613       C1381   1.083   1_545  S
C615        S621   1.718       .  A
C615        C620   1.385       .  A
C615        C616   1.408       .  A
C616        C617   1.410       .  A
C616        H627   1.083       .  S
C617        C626   1.376       .  A
C617        C618   1.385       .  A
C618        S624   1.715       .  A
C618        C619   1.405       .  A
C619        C620   1.407       .  A
C619        H628   1.083       .  S
C620        C623   1.375       .  A
S621        C622   1.726       .  A
C622        C623   1.393       .  A
C623        H629   1.082       .  S
S624        C625   1.724       .  A
C625        C626   1.395       .  A
C626        H630   1.082       .  S
C631        S637   1.701       .  A
C631        C636   1.388       .  A
C631        C632   1.398       .  A
C632        C633   1.399       .  A
C632        H643   1.083       .  S
C633        C642   1.367       .  A
C633        C634   1.387       .  A
C634        S640   1.706       .  A
C634        C635   1.402       .  A
C635        C636   1.402       .  A
C635        H644   1.083       .  S
C636        C639   1.371       .  A
S637        C638   1.718       .  A
C638        C639   1.384       .  A
C639        H645   1.083       .  S
S640        C641   1.722       .  A
C641        C642   1.384       .  A
C642        H646   1.083       .  S
C647        S653   1.704       .  A
C647        C652   1.387       .  A
C647        C648   1.403       .  A
C648        C649   1.402       .  A
C648        H659   1.083       .  S
C649        C658   1.374       .  A
C649        C650   1.387       .  A
C650        S656   1.707       .  A
C650        C651   1.404       .  A
C651        C652   1.404       .  A
C651        H660   1.083       .  S
C652        C655   1.375       .  A
S653        C654   1.720       .  A
C654        C655   1.385       .  A
C655        H661   1.083       .  S
S656        C657   1.725       .  A
C657        C658   1.388       .  A
C658        H662   1.083       .  S
C663        S669   1.702       .  A
C663        C668   1.388       .  A
C663        C664   1.397       .  A
C664        C665   1.398       .  A
C664        H675   1.082       .  S
C665        C674   1.363       .  A
C665        C666   1.388       .  A
C666        S672   1.706       .  A
C666        C667   1.399       .  A
C667        C668   1.401       .  A
C667        H676   1.084       .  S
C668        C671   1.367       .  A
S669        C670   1.720       .  A
C670        C671   1.385       .  A
C671        H677   1.084       .  S
S672        C673   1.719       .  A
C673        C674   1.379       .  A
C674        H678   1.080       .  S
C679        S685   1.719       .  A
C679        C684   1.385       .  A
C679        C680   1.401       .  A
C680        C681   1.406       .  A
C680        H691   1.082       .  S
C681        C690   1.362       .  A
C681        C682   1.386       .  A
C682        S688   1.710       .  A
C682        C683   1.394       .  A
C683        C684   1.400       .  A
C683        H692   1.082       .  S
C684        C687   1.357       .  A
S685        C686   1.723       .  A
C686        C687   1.387       .  A
C687        H693   1.083       .  S
S688        C689   1.717       .  A
C689        C690   1.391       .  A
C690        H694   1.083       .  S
C695        S701   1.715       .  A
C695        C700   1.385       .  A
C695        C696   1.399       .  A
C696        C697   1.405       .  A
C696        H707   1.083       .  S
C697        C706   1.359       .  A
C697        C698   1.386       .  A
C698        S704   1.711       .  A
C698        C699   1.394       .  A
C699        C700   1.400       .  A
C699        H708   1.083       .  S
C700        C703   1.355       .  A
S701        C702   1.722       .  A
C702        C703   1.386       .  A
C703        H709   1.084       .  S
S704        C705   1.718       .  A
C705        C706   1.390       .  A
C706        H710   1.084       .  S
C711        S717   1.711       .  A
C711        C716   1.387       .  A
C711        C712   1.397       .  A
C712        C713   1.402       .  A
C712        H723   1.083       .  S
C713        C722   1.359       .  A
C713        C714   1.387       .  A
C714        S720   1.709       .  A
C714        C715   1.395       .  A
C715        C716   1.400       .  A
C715        H724   1.083       .  S
C716        C719   1.358       .  A
S717        C718   1.720       .  A
C718        C719   1.386       .  A
C719        H725   1.084       .  S
S720        C721   1.718       .  A
C721        C722   1.388       .  A
C722        H726   1.083       .  S
C727        S733   1.711       .  A
C727        C732   1.387       .  A
C727        C728   1.402       .  A
C728       C1503   1.404   1_545  A
C728        H739   1.083   1_545  S
C729        C738   1.368       .  A
C729        C730   1.388       .  A
C729       C1502   1.401       .  A
C730        S736   1.701       .  A
C730       C1505   1.397       .  A
C731        C732   1.406       .  A
C731       C1504   1.404   1_545  A
C731        H740   1.083       .  S
C732        C735   1.371       .  A
S733        C734   1.719       .  A
C734        C735   1.385       .  A
C735        H741   1.082       .  S
S736        C737   1.721       .  A
C737        C738   1.385       .  A
C738        H742   1.083       .  S
C743        S749   1.700       .  A
C743        C748   1.389       .  A
C743        C744   1.399       .  A
C744        C745   1.400       .  A
C744        H755   1.082       .  S
C745       C2302   1.368       .  A
C745       C2294   1.388       .  A
C746        S752   1.698       .  A
C746       C2293   1.388       .  A
C746       C2295   1.397   1_455  A
C747        C748   1.396       .  A
C747       C2294   1.396       .  A
C747       H2304   1.082       .  S
C748        C751   1.365       .  A
S749        C750   1.718       .  A
C750        C751   1.377       .  A
C751        H757   1.083       .  S
S752        C753   1.721       .  A
C753        C754   1.385       .  A
C754       C2293   1.368       .  A
C754        H758   1.082       .  S
H756       C2295   1.082       .  S
C759        S765   1.706       .  A
C759        C764   1.387       .  A
C759        C760   1.401       .  A
C760        C761   1.402       .  A
C760        H771   1.083       .  S
C761        C770   1.370       .  A
C761        C762   1.388       .  A
C762        S768   1.708       .  A
C762        C763   1.402       .  A
C763        C764   1.403       .  A
C763        H772   1.082       .  S
C764        C767   1.371       .  A
S765        C766   1.723       .  A
C766        C767   1.387       .  A
C767        H773   1.083       .  S
S768        C769   1.720       .  A
C769        C770   1.383       .  A
C770        H774   1.083       .  S
Zn775       O779   1.902       .  S
Zn775       O780   1.943       .  S
Zn775       O784   1.935       .  S
Zn775       O791   1.935       .  S
Zn776       O779   1.966       .  S
Zn776       O781   2.049       .  S
Zn776       O783   2.043       .  S
Zn776       O787   2.005       .  S
Zn777       O779   1.963       .  S
Zn777       O782   2.077       .  S
Zn777       O785   2.020       .  S
Zn777       O788   2.006       .  S
Zn778       O779   1.979       .  S
Zn778       O786   2.014       .  S
Zn778       O789   2.024       .  S
Zn778       O790   2.057       .  S
O780        C792   1.265       .  A
O781        C793   1.277       .  A
O782        C794   1.277       .  A
O783        C792   1.274       .  A
O784        C794   1.263       .  A
O785        C793   1.275       .  A
O786        C795   1.275       .  A
O787        C796   1.273       .  A
O788        C795   1.274       .  A
O789        C796   1.274       .  A
O790        C797   1.274       .  A
O791        C797   1.262       .  A
C792       C1492   1.464       .  S
C793       C1511   1.480       .  S
C794       C1463   1.475       .  S
C795       C1527   1.466       .  S
C796       C1540   1.468       .  S
C797       C1476   1.464       .  S
Zn798       O803   2.046       .  S
Zn798      O2355   2.006       .  S
Zn798       O814   1.994       .  S
Zn799       O802   1.885       .  S
Zn799      O2352   1.924   1_445  S
Zn799       O810   1.965   1_545  S
Zn800      O2350   1.960   1_565  S
Zn800       O808   2.044       .  S
Zn800       O811   2.005       .  S
Zn801       O802   1.954   1_565  S
Zn801      O2357   2.028   1_455  S
Zn801       O812   2.065       .  S
O802      Zn2348   1.957   1_445  S
O803        C815   1.273       .  A
O804      Zn2347   1.923   1_565  S
O804        C816   1.263       .  A
O805        C817   1.274       .  A
O806        C815   1.262       .  A
O807      Zn2346   2.008       .  S
O807        C817   1.272       .  A
O808        C816   1.275       .  A
O809      Zn2349   2.028       .  S
O809        C818   1.277       .  A
O810        C819   1.265       .  A
O811        C818   1.273       .  A
O812        C819   1.276       .  A
O813        C820   1.274       .  A
O814        C820   1.273       .  A
C815       C1479   1.462       .  S
C816       C1495   1.461       .  S
C817       C1431   1.471       .  S
C818       C1415   1.470       .  S
C819       C1460   1.475       .  S
C820       C1444   1.461       .  S
C821        H822   1.111       .  S
C821        C827   1.550       .  S
C821        C826   1.552       .  S
C821        C825   1.545       .  S
C823        H824   1.112       .  S
C823        C829   1.522       .  S
C823        C828   1.524       .  S
C823        C830   1.527       .  S
C825        C828   1.367       .  D
C825       C1367   1.475       .  S
C826        C829   1.370       .  D
C826       C1383   1.477       .  S
C827        C830   1.374       .  D
C827       C1396   1.491       .  S
C828       C1335   1.465       .  S
C829       C1319   1.474       .  S
C830       C1348   1.469       .  S
C831        H832   1.111       .  S
C831       C1611   1.551       .  S
C831       C2383   1.547       .  S
C833        H834   1.107       .  S
C833       C2386   1.526       .  S
C833       C1614   1.526       .  S
C835       C2379   1.547   1_455  S
C835        C838   1.373       .  D
C835       C1399   1.490       .  S
C836        C839   1.376       .  D
C836       C1380   1.479       .  S
C837       C1605   1.549   1_565  S
C837        C840   1.374       .  D
C837       C1364   1.477       .  S
C838       C2381   1.527       .  S
C838       C1300   1.471       .  S
C839       C1268   1.481       .  S
C840       C1607   1.524   1_565  S
C840       C1284   1.484       .  S
C841        H842   1.112       .  S
C841        C847   1.520       .  S
C841        C846   1.527       .  S
C841        C845   1.526       .  S
C843        H844   1.111       .  S
C843        C849   1.549       .  S
C843        C848   1.548       .  S
C843        C850   1.551       .  S
C845        C848   1.375       .  D
C845       C1172   1.482       .  S
C846        C849   1.376       .  D
C846       C1204   1.472       .  S
C847        C850   1.372       .  D
C847       C1188   1.462       .  S
C848       C1223   1.480       .  S
C849       C1252   1.491       .  S
C850       C1236   1.490       .  S
C851        H852   1.113       .  S
C851        C857   1.524       .  S
C851        C856   1.520       .  S
C851        C855   1.519       .  S
C853        H854   1.111       .  S
C853        C859   1.554       .  S
C853        C858   1.550       .  S
C853        C860   1.551       .  S
C855        C858   1.371       .  D
C855       C1508   1.462       .  S
C856        C859   1.374       .  D
C856       C1524   1.468       .  S
C857        C860   1.373       .  D
C857       C1543   1.471       .  S
C858       C1220   1.488       .  S
C859       C1239   1.488       .  S
C860       C1255   1.486       .  S
Zn861       O865   1.953       .  S
Zn861       O866   2.023       .  S
Zn861       O870   2.076       .  S
Zn861       O877   2.043       .  S
Zn862       O865   1.949       .  S
Zn862       O867   2.036       .  S
Zn862       O869   2.008       .  S
Zn862       O873   2.000       .  S
Zn863       O865   1.889       .  S
Zn863       O868   1.944       .  S
Zn863       O871   1.945       .  S
Zn863       O874   1.940       .  S
Zn864       O865   1.956       .  S
Zn864       O872   2.053       .  S
Zn864       O875   2.031       .  S
Zn864       O876   2.015       .  S
O866        C878   1.276       .  A
O867        C879   1.274       .  A
O868        C880   1.264       .  A
O869        C878   1.273       .  A
O870        C880   1.279       .  A
O871        C879   1.264       .  A
O872        C881   1.276       .  A
O873        C882   1.273       .  A
O874        C881   1.264       .  A
O875        C882   1.276       .  A
O876        C883   1.275       .  A
O877        C883   1.279       .  A
C878       C1191   1.469       .  S
C879       C1127   1.461       .  S
C880       C1140   1.474       .  S
C881       C1159   1.467       .  S
C882       C1175   1.470       .  S
C883       C1207   1.476       .  S
Zn884       O888   1.883       .  S
Zn884       O889   1.937       .  S
Zn884      O2441   1.905   1_455  S
Zn884      O1674   1.928   1_455  S
Zn885       O888   1.964       .  S
Zn885       O890   1.984       .  S
Zn885       O892   2.055       .  S
Zn885       O896   2.016       .  S
Zn886      O2436   1.974       .  S
Zn886       O891   2.055       .  S
Zn886      O2442   2.030       .  S
Zn887      O1662   1.972   1_565  S
Zn887       O895   2.048       .  S
Zn887      O2446   2.013       .  S
Zn887       O899   2.090       .  S
O888      Zn2434   1.972   1_455  S
O888      Zn1661   1.964   1_455  S
O889        C901   1.262       .  A
O890        C902   1.270       .  A
O891        C903   1.274       .  A
O892        C901   1.274       .  A
O893      Zn2432   1.905       .  S
O893        C903   1.261       .  A
O894      Zn2434   2.030   1_455  S
O894        C902   1.276       .  A
O895        C904   1.279       .  A
O897        C904   1.275       .  A
O898      Zn2435   2.013   1_455  S
O898        C905   1.276       .  A
O899        C906   1.279       .  A
O900      Zn1658   1.931   1_565  S
O900        C906   1.262       .  A
C901       C1156   1.468       .  S
C902       C1351   1.462       .  S
C903       C1124   1.461       .  S
C904       C1316   1.478       .  S
C905       C1332   1.468       .  S
C906       C1143   1.477       .  S
C907        H908   1.113       .  S
C907        C913   1.518       .  S
C907        C912   1.523       .  S
C907        C911   1.519       .  S
C909        H910   1.110       .  S
C909        C915   1.554       .  S
C909        C914   1.551       .  S
C909        C916   1.561       .  S
C911        C914   1.369       .  D
C911       C1447   1.460       .  S
C912        C915   1.375       .  D
C912       C1412   1.467       .  S
C913        C916   1.377       .  D
C913       C1428   1.474       .  S
C914       C1108   1.490       .  S
C915       C1095   1.496       .  S
C916       C1076   1.491       .  S
C917        H918   1.111       .  S
C917        C923   1.552       .  S
C917       C2470   1.557   1_455  S
C917       C1695   1.550   1_455  S
C919        H920   1.108       .  S
C919       C2473   1.525   1_455  S
C919       C1698   1.530   1_455  S
C919        C926   1.532       .  S
C921       C1691   1.551   1_565  S
C921        C924   1.376       .  D
C921       C1092   1.497       .  S
C922       C2465   1.557       .  S
C922        C925   1.378       .  D
C922       C1079   1.491       .  S
C923        C926   1.379       .  D
C923       C1111   1.490       .  S
C924       C1693   1.525   1_565  S
C924       C1031   1.470       .  S
C925       C2467   1.525       .  S
C925       C1047   1.484       .  S
C926       C1060   1.491       .  S
Zn927       O931   1.952       .  S
Zn927       O932   2.001       .  S
Zn927       O936   2.027       .  S
Zn927       O943   1.991       .  S
Zn928       O931   1.960       .  S
Zn928       O933   2.032       .  S
Zn928       O935   2.009       .  S
Zn928       O939   2.017       .  S
Zn929       O931   1.928       .  S
Zn929       O934   1.997       .  S
Zn929       O937   1.996       .  S
Zn929       O940   1.974       .  S
Zn930       O931   1.967       .  S
Zn930       O938   2.031       .  S
Zn930       O941   2.005       .  S
Zn930       O942   2.026       .  S
O932        C944   1.272       .  A
O933        C945   1.274       .  A
O934        C946   1.271       .  A
O935        C944   1.273       .  A
O936        C946   1.272       .  A
O937        C945   1.270       .  A
O938        C947   1.275       .  A
O939        C948   1.273       .  A
O940        C947   1.269       .  A
O941        C948   1.273       .  A
O942        C949   1.273       .  A
O943        C949   1.271       .  A
C944       C1012   1.467       .  S
C945       C1303   1.465       .  S
C946       C1287   1.468       .  S
C947       C1271   1.463       .  S
C948        C980   1.471       .  S
C949        C999   1.470       .  S
Zn950       O954   1.960       .  S
Zn950       O955   2.026       .  S
Zn950       O959   2.008       .  S
Zn950       O966   2.012       .  S
Zn951       O954   1.929       .  S
Zn951       O956   1.983       .  S
Zn951       O958   1.974       .  S
Zn951       O962   1.973       .  S
Zn952       O954   1.964       .  S
Zn952       O957   2.023       .  S
Zn952       O960   2.056       .  S
Zn952       O963   1.995       .  S
Zn953       O954   1.972       .  S
Zn953       O961   2.029       .  S
Zn953       O964   2.039       .  S
Zn953       O965   2.027       .  S
O955        C967   1.273       .  A
O956        C968   1.267       .  A
O957        C969   1.275       .  A
O958        C967   1.268       .  A
O959        C969   1.273       .  A
O960        C968   1.275       .  A
O961        C970   1.276       .  A
O962        C971   1.268       .  A
O963        C970   1.272       .  A
O964        C971   1.276       .  A
O965        C972   1.273       .  A
O966        C972   1.272       .  A
C967       C1063   1.463       .  S
C968       C1044   1.470       .  S
C969        C996   1.471       .  S
C970       C1015   1.469       .  S
C971       C1028   1.458       .  S
C972        C983   1.474       .  S
C973        S979   1.707       .  A
C973        C978   1.386       .  A
C973        C974   1.401       .  A
C974        C975   1.402   1_556  A
C974        H985   1.083       .  S
C975        C984   1.369       .  A
C975        C976   1.386   1_554  A
C976        S982   1.708   1_556  A
C976        C977   1.401       .  A
C977        C978   1.403       .  A
C977        H986   1.083       .  S
C978        C981   1.369       .  A
S979        C980   1.724       .  A
C980        C981   1.387       .  A
C981        H987   1.083       .  S
S982        C983   1.724       .  A
C983        C984   1.388       .  A
C984        H988   1.083       .  S
C989        S995   1.706       .  A
C989        C994   1.387       .  A
C989        C990   1.400   1_554  A
C990       H1001   1.083       .  S
C991       C1000   1.364       .  A
C991        C992   1.386       .  A
C992        S998   1.710       .  A
C992        C993   1.403   1_565  A
C993       H1002   1.083       .  S
C994        C997   1.371       .  A
S995        C996   1.723       .  A
C996        C997   1.388       .  A
C997       H1003   1.083       .  S
S998        C999   1.724       .  A
C999       C1000   1.385       .  A
C1000      H1004   1.083       .  S
C1005      S1011   1.703       .  A
C1005      C1010   1.387       .  A
C1005      C2554   1.400       .  A
C1006      C2553   1.400       .  A
C1006      C1007   1.400   1_556  A
C1006      H1017   1.082       .  S
C1007      C1016   1.369       .  A
C1007      C1008   1.387       .  A
C1008      S1014   1.703       .  A
C1008      C2557   1.401   1_554  A
C1009      C2556   1.401   1_456  A
C1009      C1010   1.401       .  A
C1009      H1018   1.082       .  S
C1010      C1013   1.369       .  A
S1011      C1012   1.722       .  A
C1012      C1013   1.387       .  A
C1013      H1019   1.082       .  S
S1014      C1015   1.724       .  A
C1015      C1016   1.386       .  A
C1016      H1020   1.082       .  S
C1021      S1027   1.699       .  A
C1021      C1026   1.388       .  A
C1021      C1022   1.398       .  A
C1022      C1023   1.397       .  A
C1022      H1033   1.083       .  S
C1023      C1032   1.367       .  A
C1023      C1024   1.388       .  A
C1024      S1030   1.701       .  A
C1024      C1025   1.401       .  A
C1025      C1026   1.401       .  A
C1025      H1034   1.083       .  S
C1026      C1029   1.371       .  A
S1027      C1028   1.719       .  A
C1028      C1029   1.383       .  A
C1029      H1035   1.083       .  S
S1030      C1031   1.723       .  A
C1031      C1032   1.381       .  A
C1032      H2584   1.083       .  S
H1036      C2580   1.083       .  S
C1037      S1043   1.704       .  A
C1037      C1042   1.388       .  A
C1037      C1038   1.404       .  A
C1038      C1039   1.402       .  A
C1038      H1049   1.084       .  S
C1039      C1048   1.376       .  A
C1039      C1040   1.386       .  A
C1040      S1046   1.697       .  A
C1040      C1041   1.401       .  A
C1041      C1042   1.400       .  A
C1041      H1050   1.085       .  S
C1042      C1045   1.375       .  A
S1043      C1044   1.724       .  A
C1044      C1045   1.385       .  A
C1045      H1051   1.084       .  S
S1046      C1047   1.722       .  A
C1047      C1048   1.388       .  A
C1048      H1052   1.083       .  S
C1053      S1059   1.707       .  A
C1053      C1058   1.383       .  A
C1053      C1054   1.399       .  A
C1054      C1055   1.402       .  A
C1054      H1065   1.083       .  S
C1055      C1064   1.363       .  A
C1055      C1056   1.387       .  A
C1056      S1062   1.709       .  A
C1056      C1057   1.397       .  A
C1057      C1058   1.401       .  A
C1057      H1066   1.083       .  S
C1058      C1061   1.361       .  A
S1059      C1060   1.728       .  A
C1060      C1061   1.387       .  A
C1061      H1067   1.076       .  S
S1062      C1063   1.719       .  A
C1063      C1064   1.385       .  A
C1064      H1068   1.083       .  S
C1069      S1075   1.714       .  A
C1069      C1074   1.385       .  A
C1069      C1070   1.404       .  A
C1070      C1071   1.406       .  A
C1070      H1081   1.083       .  S
C1071      C1080   1.372       .  A
C1071      C1072   1.385       .  A
C1072      S1078   1.714       .  A
C1072      C1073   1.405       .  A
C1073      C1074   1.407       .  A
C1073      H1082   1.083       .  S
C1074      C1077   1.372       .  A
S1075      C1076   1.723       .  A
C1076      C1077   1.393       .  A
C1077      H1083   1.082       .  S
S1078      C1079   1.725       .  A
C1079      C1080   1.391       .  A
C1080      H2632   1.082       .  S
H1084      C2628   1.082       .  S
C1085      S1091   1.714       .  A
C1085      C1090   1.385       .  A
C1085      C1086   1.406       .  A
C1086      C1087   1.407       .  A
C1086      H1097   1.083       .  S
C1087      C1096   1.375       .  A
C1087      C1088   1.385       .  A
C1088      S1094   1.715       .  A
C1088      C1089   1.406       .  A
C1089      C1090   1.407       .  A
C1089      H1098   1.084       .  S
C1090      C1093   1.376       .  A
S1091      C1092   1.726       .  A
C1092      C1093   1.393       .  A
C1093      H1099   1.083       .  S
S1094      C1095   1.725       .  A
C1095      C1096   1.393       .  A
C1096      H1100   1.082       .  S
C1101      S1107   1.715       .  A
C1101      C1106   1.385       .  A
C1101      C1102   1.404       .  A
C1102      C1103   1.406       .  A
C1102      H1113   1.082       .  S
C1103      C1112   1.374       .  A
C1103      C1104   1.386       .  A
C1104      S1110   1.717       .  A
C1104      C1105   1.407       .  A
C1105      C1106   1.408       .  A
C1105      H1114   1.083       .  S
C1106      C1109   1.374       .  A
S1107      C1108   1.721       .  A
C1108      C1109   1.393       .  A
C1109      H1115   1.082       .  S
S1110      C1111   1.725       .  A
C1111      C1112   1.390       .  A
C1112      H1116   1.083       .  S
C1117      S1123   1.716       .  A
C1117      C1122   1.386       .  A
C1117      C1118   1.398       .  A
C1118      C1119   1.404       .  A
C1118      H1129   1.084       .  S
C1119      C1128   1.360       .  A
C1119      C1120   1.387       .  A
C1120      S1126   1.705       .  A
C1120      C1121   1.391       .  A
C1121      C1122   1.397       .  A
C1121      H1130   1.084       .  S
C1122      C1125   1.351       .  A
S1123      C1124   1.719       .  A
C1124      C1125   1.384       .  A
C1125      H1131   1.085       .  S
S1126      C1127   1.716       .  A
C1127      C1128   1.388       .  A
C1128      H1132   1.084       .  S
C1133      S1139   1.715       .  A
C1133      C1138   1.386       .  A
C1133      C1134   1.398       .  A
C1134      C1135   1.404       .  A
C1134      H1145   1.083       .  S
C1135      C1144   1.360       .  A
C1135      C1136   1.385       .  A
C1136      S1142   1.720       .  A
C1136      C1137   1.401       .  A
C1137      C1138   1.407       .  A
C1137      H1146   1.082       .  S
C1138      C1141   1.363       .  A
S1139      C1140   1.720       .  A
C1140      C1141   1.392       .  A
C1141      H1147   1.083       .  S
S1142      C1143   1.723       .  A
C1143      C1144   1.391       .  A
C1144      H1148   1.083       .  S
C1149      S1155   1.714       .  A
C1149      C1154   1.386       .  A
C1149      C1150   1.399       .  A
C1150      C1151   1.403       .  A
C1150      H1161   1.081       .  S
C1151      C1160   1.361       .  A
C1151      C1152   1.386       .  A
C1152      S1158   1.711       .  A
C1152      C1153   1.396       .  A
C1153      C1154   1.401       .  A
C1153      H1162   1.082       .  S
C1154      C1157   1.359       .  A
S1155      C1156   1.720       .  A
C1156      C1157   1.387       .  A
C1157      H1163   1.083       .  S
S1158      C1159   1.718       .  A
C1159      C1160   1.389       .  A
C1160      H1164   1.082       .  S
C1165      S1171   1.710       .  A
C1165      C1170   1.386       .  A
C1165      C1166   1.401       .  A
C1167      C1176   1.367       .  A
C1167      C1168   1.387       .  A
C1168      S1174   1.708       .  A
C1169      C1170   1.405       .  A
C1169      H1178   1.083       .  S
C1170      C1173   1.369       .  A
S1171      C1172   1.724       .  A
C1172      C1173   1.386       .  A
C1173      H1179   1.082       .  S
S1174      C1175   1.722       .  A
C1175      C1176   1.387       .  A
C1176      H1180   1.083       .  S
C1181      S1187   1.701       .  A
C1181      C1186   1.388       .  A
C1181      C1182   1.397       .  A
C1182      C2731   1.399       .  A
C1182      H1193   1.080       .  S
C1183      C2730   1.399       .  A
C1183      C1192   1.366       .  A
C1183      C1184   1.387       .  A
C1184      S1190   1.706       .  A
C1184      C2733   1.402       .  A
C1185      C2732   1.402       .  A
C1185      C1186   1.402       .  A
C1185      H1194   1.081       .  S
C1186      C1189   1.368       .  A
S1187      C1188   1.717       .  A
C1188      C1189   1.381       .  A
C1189      H1195   1.082       .  S
S1190      C1191   1.725       .  A
C1191      C1192   1.384       .  A
C1192      H1196   1.081       .  S
C1197      S1203   1.708       .  A
C1197      C1202   1.388       .  A
C1197      C1198   1.403       .  A
C1198      C1199   1.404       .  A
C1198      H1209   1.082       .  S
C1199      C1208   1.372       .  A
C1199      C1200   1.387       .  A
C1200      S1206   1.709       .  A
C1200      C1201   1.402       .  A
C1201      C1202   1.402       .  A
C1201      H1210   1.082       .  S
C1202      C1205   1.371       .  A
S1203      C1204   1.721       .  A
C1204      C1205   1.383       .  A
C1205      H1211   1.082       .  S
S1206      C1207   1.723       .  A
C1207      C1208   1.389       .  A
C1208      H1212   1.083       .  S
C1213      S1219   1.717       .  A
C1213      C1218   1.385       .  A
C1214      C1215   1.404   1_545  A
C1214      H1225   1.083       .  S
C1215      C1224   1.367       .  A
C1215      C1216   1.386       .  A
C1216      S1222   1.712       .  A
C1217      C1218   1.405       .  A
C1217      H1226   1.083       .  S
C1218      C1221   1.368       .  A
S1219      C1220   1.723       .  A
C1220      C1221   1.389       .  A
C1221      H1227   1.082       .  S
S1222      C1223   1.720       .  A
C1223      C1224   1.388       .  A
C1224      H1228   1.083       .  S
C1229      S1235   1.717       .  A
C1229      C1234   1.385       .  A
C1229      C1230   1.405       .  A
C1230      C2779   1.408   1_455  A
C1230      H1241   1.083       .  S
C1231      C2778   1.408       .  A
C1231      C1240   1.372       .  A
C1231      C1232   1.385       .  A
C1232      S1238   1.714       .  A
C1232      C1233   1.403       .  A
C1233      C2782   1.405       .  A
C1233      H1242   1.083       .  S
C1234      C2781   1.405   1_455  A
C1234      C1237   1.370       .  A
S1235      C1236   1.724       .  A
C1236      C1237   1.389       .  A
C1237      H1243   1.080       .  S
S1238      C1239   1.721       .  A
C1239      C1240   1.392       .  A
C1240      H1244   1.081       .  S
C1245      S1251   1.712       .  A
C1245      C1250   1.385       .  A
C1245      C1246   1.403       .  A
C1246      C1247   1.405       .  A
C1246      H1257   1.083       .  S
C1247      C1256   1.370       .  A
C1247      C1248   1.386       .  A
C1248      S1254   1.712       .  A
C1248      C1249   1.403       .  A
C1249      C1250   1.405       .  A
C1249      H1258   1.083       .  S
C1250      C1253   1.370       .  A
S1251      C1252   1.724       .  A
C1252      C1253   1.391       .  A
C1253      H1259   1.080       .  S
S1254      C1255   1.722       .  A
C1255      C1256   1.390       .  A
C1256      H1260   1.082       .  S
C1261      S1267   1.701       .  A
C1261      C1266   1.386       .  A
C1261      C1262   1.402       .  A
C1262      C1263   1.401       .  A
C1262      H1273   1.082       .  S
C1263      C1272   1.371       .  A
C1263      C1264   1.388       .  A
C1264      S1270   1.697       .  A
C1264      C1265   1.397       .  A
C1265      C1266   1.397       .  A
C1265      H1274   1.082       .  S
C1266      C1269   1.367       .  A
S1267      C1268   1.726       .  A
C1268      C1269   1.385       .  A
S1270      C1271   1.721       .  A
C1271      C1272   1.385       .  A
C1272      H1276   1.083       .  S
C1277      S1283   1.700       .  A
C1277      C1282   1.386       .  A
C1277      C1278   1.396       .  A
C1278      C1279   1.398       .  A
C1278      H1289   1.083       .  S
C1279      C1288   1.364       .  A
C1279      C1280   1.387       .  A
C1280      S1286   1.713       .  A
C1280      C1281   1.405       .  A
C1281      C1282   1.406       .  A
C1281      H1290   1.082       .  S
C1282      C1285   1.372       .  A
S1283      C1284   1.721       .  A
C1284      C1285   1.390       .  A
C1285      H1291   1.083   1_565  S
S1286      C1287   1.725       .  A
C1287      C1288   1.383       .  A
C1288      H1292   1.083       .  S
C1293      S1299   1.707       .  A
C1293      C1298   1.387       .  A
C1293      C1294   1.400       .  A
C1294      C1295   1.403       .  A
C1294      H1305   1.083       .  S
C1295      C1304   1.367       .  A
C1295      C1296   1.388       .  A
C1296      S1302   1.706       .  A
C1296      C1297   1.397       .  A
C1297      C1298   1.399       .  A
C1297      H1306   1.083       .  S
C1298      C1301   1.362       .  A
S1299      C1300   1.723       .  A
C1300      C1301   1.381       .  A
C1301      H1307   1.083   1_455  S
S1302      C1303   1.719       .  A
C1303      C1304   1.386       .  A
C1304      H1308   1.083       .  S
C1309      S1315   1.711       .  A
C1309      C1314   1.386       .  A
C1309      C1310   1.404       .  A
C1310      C1311   1.405       .  A
C1310      H1321   1.081       .  S
C1311      C1320   1.373       .  A
C1311      C1312   1.388       .  A
C1312      S1318   1.709       .  A
C1312      C1313   1.402       .  A
C1313      C1314   1.404       .  A
C1313      H1322   1.082       .  S
C1314      C1317   1.371       .  A
S1315      C1316   1.725       .  A
C1316      C1317   1.389       .  A
C1317      H1323   1.082       .  S
S1318      C1319   1.720       .  A
C1319      C1320   1.384       .  A
C1320      H1324   1.082       .  S
C1325      S1331   1.708       .  A
C1325      C1330   1.387       .  A
C1325      C1326   1.402       .  A
C1326      C1327   1.403       .  A
C1326      H1337   1.083       .  S
C1327      C1336   1.370       .  A
C1327      C1328   1.388       .  A
C1328      S1334   1.703       .  A
C1328      C1329   1.397       .  A
C1329      C1330   1.399       .  A
C1329      H1338   1.083       .  S
C1330      C1333   1.366       .  A
S1331      C1332   1.724       .  A
C1332      C1333   1.384       .  A
C1333      H1339   1.083       .  S
S1334      C1335   1.715       .  A
C1335      C1336   1.383       .  A
C1336      H1340   1.083       .  S
C1341      S1347   1.705       .  A
C1341      C1346   1.388       .  A
C1341      C1342   1.400       .  A
C1342      C1343   1.401       .  A
C1342      H1353   1.083       .  S
C1343      C1352   1.369       .  A
C1343      C1344   1.388       .  A
C1344      S1350   1.700       .  A
C1344      C1345   1.397       .  A
C1345      C1346   1.397       .  A
C1345      H1354   1.083       .  S
C1346      C1349   1.364       .  A
S1347      C1348   1.722       .  A
C1348      C1349   1.380       .  A
C1349      H1355   1.083       .  S
S1350      C1351   1.721       .  A
C1351      C1352   1.384       .  A
C1352      H1356   1.083       .  S
C1357      S1363   1.708       .  A
C1357      C1362   1.387       .  A
C1357      C1358   1.403       .  A
C1358      C1359   1.403       .  A
C1358      H1369   1.083       .  S
C1359      C1368   1.373       .  A
C1359      C1360   1.387       .  A
C1360      S1366   1.710       .  A
C1360      C1361   1.405       .  A
C1361      C1362   1.405       .  A
C1361      H1370   1.083       .  S
C1362      C1365   1.375       .  A
S1363      C1364   1.720       .  A
C1364      C1365   1.387       .  A
C1365      H1371   1.083   1_455  S
S1366      C1367   1.722       .  A
C1367      C1368   1.384       .  A
C1368      H1372   1.083       .  S
C1373      S1379   1.710       .  A
C1373      C1378   1.387       .  A
C1373      C1374   1.404       .  A
C1374      C1375   1.404       .  A
C1374      H1385   1.083       .  S
C1375      C1384   1.375       .  A
C1375      C1376   1.387       .  A
C1376      S1382   1.707       .  A
C1376      C1377   1.403       .  A
C1377      C1378   1.404       .  A
C1377      H1386   1.084       .  S
C1378      C1381   1.374       .  A
S1379      C1380   1.724       .  A
C1380      C1381   1.386       .  A
S1382      C1383   1.724       .  A
C1383      C1384   1.384       .  A
C1384      H1388   1.083       .  S
C1389      S1395   1.717       .  A
C1389      C1394   1.385       .  A
C1389      C1390   1.406       .  A
C1390      C1391   1.408       .  A
C1390      H1401   1.083       .  S
C1391      C1400   1.374       .  A
C1391      C1392   1.386       .  A
C1392      S1398   1.714       .  A
C1392      C1393   1.404       .  A
C1393      C1394   1.405       .  A
C1393      H1402   1.083       .  S
C1394      C1397   1.372       .  A
S1395      C1396   1.724       .  A
C1396      C1397   1.391       .  A
C1397      H1403   1.083       .  S
S1398      C1399   1.722       .  A
C1399      C1400   1.392       .  A
C1400      H1404   1.083       .  S
C1405      S1411   1.703       .  A
C1405      C1410   1.388       .  A
C1405      C1406   1.399       .  A
C1406      C1407   1.400       .  A
C1406      H1417   1.083       .  S
C1407      C1416   1.369       .  A
C1407      C1408   1.387       .  A
C1408      S1414   1.705       .  A
C1408      C1409   1.402       .  A
C1409      C1410   1.402       .  A
C1409      H1418   1.083       .  S
C1410      C1413   1.371       .  A
S1411      C1412   1.718       .  A
C1412      C1413   1.383       .  A
C1413      H1419   1.083       .  S
S1414      C1415   1.724       .  A
C1415      C1416   1.385       .  A
C1416      H1420   1.083       .  S
C1421      S1427   1.703       .  A
C1421      C1426   1.388       .  A
C1421      C1422   1.401       .  A
C1422      C1423   1.401       .  A
C1422      H1433   1.083       .  S
C1423      C1432   1.372       .  A
C1423      C1424   1.387       .  A
C1424      S1430   1.705       .  A
C1424      C1425   1.402       .  A
C1425      C1426   1.402       .  A
C1425      H1434   1.083       .  S
C1426      C1429   1.373       .  A
S1427      C1428   1.721       .  A
C1428      C1429   1.384       .  A
C1429      H1435   1.083       .  S
S1430      C1431   1.724       .  A
C1431      C1432   1.386       .  A
C1432      H1436   1.083       .  S
C1437      S1443   1.702       .  A
C1437      C1442   1.388       .  A
C1437      C1438   1.396       .  A
C1438      C1439   1.398       .  A
C1438      H1449   1.083       .  S
C1439      C1448   1.363       .  A
C1439      C1440   1.388       .  A
C1440      S1446   1.704       .  A
C1440      C1441   1.398       .  A
C1441      C1442   1.400       .  A
C1441      H1450   1.084       .  S
C1442      C1445   1.364       .  A
S1443      C1444   1.720       .  A
C1444      C1445   1.385       .  A
C1445      H1451   1.084       .  S
S1446      C1447   1.717       .  A
C1447      C1448   1.379       .  A
C1448      H1452   1.083       .  S
C1453      S1459   1.713       .  A
C1453      C1458   1.386       .  A
C1453      C1454   1.398       .  A
C1454      C1455   1.403       .  A
C1454      H1465   1.082       .  S
C1455      C1464   1.361       .  A
C1455      C1456   1.385       .  A
C1456      S1462   1.719       .  A
C1456      C1457   1.403       .  A
C1457      C1458   1.407       .  A
C1457      H1466   1.081       .  S
C1458      C1461   1.367       .  A
S1459      C1460   1.721       .  A
C1460      C1461   1.392       .  A
C1461      H1467   1.082       .  S
S1462      C1463   1.723       .  A
C1463      C1464   1.389       .  A
C1464      H1468   1.083       .  S
C1469      S1475   1.709       .  A
C1469      C1474   1.386       .  A
C1469      C1470   1.395       .  A
C1470      C1471   1.400       .  A
C1470      H1481   1.083       .  S
C1471      C1480   1.357       .  A
C1471      C1472   1.386       .  A
C1472      S1478   1.712       .  A
C1472      C1473   1.398       .  A
C1473      C1474   1.403       .  A
C1473      H1482   1.083       .  S
C1474      C1477   1.361       .  A
S1475      C1476   1.718       .  A
C1476      C1477   1.389       .  A
C1477      H1483   1.084       .  S
S1478      C1479   1.720       .  A
C1479      C1480   1.386       .  A
C1480      H1484   1.084       .  S
C1485      S1491   1.710       .  A
C1485      C1490   1.387       .  A
C1485      C1486   1.395       .  A
C1486      C1487   1.400       .  A
C1486      H1497   1.083       .  S
C1487      C1496   1.355       .  A
C1487      C1488   1.386       .  A
C1488      S1494   1.711       .  A
C1488      C1489   1.395       .  A
C1489      C1490   1.401       .  A
C1489      H1498   1.083       .  S
C1490      C1493   1.357       .  A
S1491      C1492   1.719       .  A
C1492      C1493   1.386       .  A
C1493      H1499   1.083       .  S
S1494      C1495   1.718       .  A
C1495      C1496   1.386       .  A
C1496      H1500   1.084       .  S
C1501      S1507   1.706       .  A
C1501      C1506   1.388       .  A
C1501      C1502   1.400       .  A
C1502      H1513   1.083       .  S
C1503      C1512   1.371       .  A
C1503      C1504   1.386       .  A
C1504      S1510   1.714       .  A
C1505      C1506   1.397       .  A
C1505      H1514   1.084       .  S
C1506      C1509   1.363       .  A
S1507      C1508   1.717       .  A
C1508      C1509   1.379       .  A
C1509      H1515   1.082       .  S
S1510      C1511   1.726       .  A
C1511      C1512   1.389       .  A
C1512      H1516   1.083       .  S
C1517      S1523   1.701       .  A
C1517      C1522   1.388       .  A
C1517      C1518   1.399       .  A
C1518      C1519   1.399       .  A
C1518      H1529   1.082       .  S
C1519      C3076   1.368       .  A
C1519      C3068   1.387       .  A
C1520      S1526   1.703       .  A
C1520      C3067   1.387       .  A
C1520      C3069   1.401   1_455  A
C1521      C3068   1.401       .  A
C1521      C1522   1.401       .  A
C1521      H3078   1.082       .  S
C1522      C1525   1.371       .  A
S1523      C1524   1.718       .  A
C1524      C1525   1.382       .  A
C1525      H1531   1.082       .  S
S1526      C1527   1.722       .  A
C1527      C1528   1.385       .  A
C1528      C3067   1.368       .  A
C1528      H1532   1.082       .  S
H1530      C3069   1.082       .  S
C1533      S1539   1.700       .  A
C1533      C1538   1.388       .  A
C1533      C1534   1.396       .  A
C1534      C1535   1.397       .  A
C1534      H1545   1.083       .  S
C1535      C1544   1.364       .  A
C1535      C1536   1.387       .  A
C1536      S1542   1.712       .  A
C1536      C1537   1.405       .  A
C1537      C1538   1.406       .  A
C1537      H1546   1.082       .  S
C1538      C1541   1.373       .  A
S1539      C1540   1.720       .  A
C1540      C1541   1.388       .  A
C1541      H1547   1.082       .  S
S1542      C1543   1.724       .  A
C1543      C1544   1.379       .  A
C1544      H1548   1.083       .  S
Zn1549     O1553   1.883       .  S
Zn1549     O1554   1.940       .  S
Zn1549     O1558   1.942       .  S
Zn1549     O1565   1.924       .  S
Zn1550     O1553   1.950       .  S
Zn1550     O1555   1.994       .  S
Zn1550     O1557   2.041       .  S
Zn1550     O1561   2.011       .  S
Zn1551     O1553   1.953       .  S
Zn1551     O1556   2.054       .  S
Zn1551     O1559   2.022       .  S
Zn1551     O1562   1.993       .  S
Zn1552     O1553   1.965       .  S
Zn1552     O1560   2.016       .  S
Zn1552     O1563   2.030       .  S
Zn1552     O1564   2.058       .  S
O1554      C1566   1.263       .  A
O1555      C1567   1.272       .  A
O1556      C1568   1.276       .  A
O1557      C1566   1.272       .  A
O1558      C1568   1.263       .  A
O1559      C1567   1.276       .  A
O1560      C1569   1.275       .  A
O1561      C1570   1.275       .  A
O1562      C1569   1.272       .  A
O1563      C1570   1.277       .  A
O1564      C1571   1.275       .  A
O1565      C1571   1.263       .  A
C1566      C2266   1.465       .  S
C1567      C2285   1.465       .  S
C1568      C2237   1.468       .  S
C1569      C2301   1.463       .  S
C1570      C2314   1.471       .  S
C1571      C2250   1.466       .  S
Zn1572     O2350   1.954       .  S
Zn1572     O1577   2.071       .  S
Zn1572     O1588   2.014       .  S
Zn1573     O1576   1.891       .  S
Zn1573     O2354   1.927       .  S
Zn1573     O1584   1.933       .  S
Zn1574     O2353   2.029       .  S
Zn1574     O1582   2.043       .  S
Zn1574     O1585   2.019       .  S
Zn1575     O1576   1.968       .  S
Zn1575     O1586   2.069       .  S
Zn1575     O2361   2.006       .  S
O1576     Zn2346   1.961       .  S
O1577      C1589   1.278       .  A
O1578      C1590   1.264       .  A
O1579     Zn2348   2.035   1_545  S
O1579      C1591   1.276       .  A
O1580     Zn2347   1.926       .  S
O1580      C1589   1.263       .  A
O1581      C1591   1.275       .  A
O1582      C1590   1.275       .  A
O1583      C1592   1.274       .  A
O1584      C1593   1.262       .  A
O1585      C1592   1.275       .  A
O1586      C1593   1.274       .  A
O1587     Zn2349   2.004   1_545  S
O1587      C1594   1.274       .  A
O1588      C1594   1.276       .  A
C1589      C2253   1.468       .  S
C1590      C2269   1.463       .  S
C1591      C2205   1.477       .  S
C1592      C2189   1.465       .  S
C1593      C2234   1.473       .  S
C1594      C2218   1.463       .  S
C1595      H1596   1.111       .  S
C1595      C1601   1.555       .  S
C1595      C1600   1.554       .  S
C1595      C1599   1.545       .  S
C1597      H1598   1.113       .  S
C1597      C1603   1.518       .  S
C1597      C1602   1.522       .  S
C1597      C1604   1.525       .  S
C1599      C1602   1.367       .  D
C1599      C2141   1.474       .  S
C1600      C1603   1.372       .  D
C1600      C2157   1.480       .  S
C1601      C1604   1.376       .  D
C1601      C2170   1.498       .  S
C1602      C2109   1.464       .  S
C1603      C2093   1.473       .  S
C1604      C2122   1.467       .  S
C1605      H1606   1.111       .  S
C1605      C2384   1.548   1_445  S
C1607      H1608   1.110       .  S
C1607      C2387   1.526   1_445  S
C1609      C1612   1.376       .  D
C1609      C2173   1.497       .  S
C1610      C2379   1.552       .  S
C1610      C1613   1.375       .  D
C1610      C2154   1.481       .  S
C1611      C1614   1.376       .  D
C1611      C2138   1.476       .  S
C1612      C2074   1.471       .  S
C1613      C2381   1.524   1_655  S
C1613      C2042   1.485       .  S
C1614      C2058   1.491       .  S
C1615      H1616   1.113       .  S
C1615      C1621   1.520       .  S
C1615      C1620   1.526       .  S
C1615      C1619   1.522       .  S
C1617      H1618   1.111       .  S
C1617      C1623   1.552       .  S
C1617      C1622   1.554       .  S
C1617      C1624   1.558       .  S
C1619      C1622   1.372       .  D
C1619      C1946   1.468       .  S
C1620      C1623   1.375       .  D
C1620      C1978   1.473       .  S
C1621      C1624   1.375       .  D
C1621      C1962   1.468       .  S
C1622      C1997   1.491       .  S
C1623      C2026   1.492       .  S
C1624      C2010   1.492       .  S
C1625      H1626   1.113       .  S
C1625      C1631   1.529       .  S
C1625      C1630   1.521       .  S
C1625      C1629   1.522       .  S
C1627      H1628   1.111       .  S
C1627      C1633   1.552       .  S
C1627      C1632   1.550       .  S
C1627      C1634   1.550       .  S
C1629      C1632   1.374       .  D
C1629      C2282   1.477       .  S
C1630      C1633   1.373       .  D
C1630      C2298   1.459       .  S
C1631      C1634   1.373       .  D
C1631      C2317   1.472       .  S
C1632      C1994   1.477       .  S
C1633      C2013   1.494       .  S
C1634      C2029   1.492       .  S
Zn1635     O1639   1.961       .  S
Zn1635     O1640   2.025       .  S
Zn1635     O1644   2.079       .  S
Zn1635     O1651   2.036       .  S
Zn1636     O1639   1.961       .  S
Zn1636     O1641   2.055       .  S
Zn1636     O1643   2.012       .  S
Zn1636     O1647   2.010       .  S
Zn1637     O1639   1.897       .  S
Zn1637     O1642   1.945       .  S
Zn1637     O1645   1.921       .  S
Zn1637     O1648   1.948       .  S
Zn1638     O1639   1.963       .  S
Zn1638     O1646   2.049       .  S
Zn1638     O1649   2.045       .  S
Zn1638     O1650   2.019       .  S
O1640      C1652   1.277       .  A
O1641      C1653   1.275       .  A
O1642      C1654   1.263       .  A
O1643      C1652   1.274       .  A
O1644      C1654   1.278       .  A
O1645      C1653   1.262       .  A
O1646      C1655   1.276       .  A
O1647      C1656   1.273       .  A
O1648      C1655   1.264       .  A
O1649      C1656   1.276       .  A
O1650      C1657   1.276       .  A
O1651      C1657   1.278       .  A
C1652      C1965   1.471       .  S
C1653      C1901   1.464       .  S
C1654      C1914   1.475       .  S
C1655      C1933   1.467       .  S
C1656      C1949   1.473       .  S
C1657      C1981   1.476       .  S
Zn1658     O1662   1.891       .  S
Zn1658     O1663   1.940       .  S
Zn1659     O1662   1.964       .  S
Zn1659     O1664   1.996       .  S
Zn1659     O1666   2.053       .  S
Zn1659     O1670   2.014       .  S
Zn1660     O1665   2.058       .  S
Zn1660     O2445   2.016   1_545  S
Zn1661     O1669   2.043       .  S
Zn1661     O1673   2.084       .  S
O1663      C1675   1.263       .  A
O1664      C1676   1.271       .  A
O1665      C1677   1.275       .  A
O1666      C1675   1.274       .  A
O1667      C1677   1.262       .  A
O1668      C1676   1.276       .  A
O1669      C1678   1.278       .  A
O1670      C2453   1.275   1_545  A
O1671     Zn2434   2.011       .  S
O1671      C1678   1.274       .  A
O1672      C1679   1.275       .  A
O1673      C1680   1.277       .  A
O1674      C1680   1.262       .  A
C1675      C1930   1.468       .  S
C1676      C2125   1.467       .  S
C1677      C1898   1.465       .  S
C1678      C2090   1.476       .  S
C1679      O2444   1.274       .  A
C1679      C2106   1.465       .  S
C1680      C1917   1.475       .  S
C1681      H1682   1.113       .  S
C1681      C1687   1.518       .  S
C1681      C1686   1.528       .  S
C1681      C1685   1.523       .  S
C1683      H1684   1.111       .  S
C1683      C1689   1.549       .  S
C1683      C1688   1.546       .  S
C1683      C1690   1.558       .  S
C1685      C1688   1.369       .  D
C1685      C2221   1.464       .  S
C1686      C1689   1.376       .  D
C1686      C2186   1.468       .  S
C1687      C1690   1.375       .  D
C1687      C2202   1.477       .  S
C1688      C1882   1.486       .  S
C1689      C1869   1.492       .  S
C1690      C1850   1.484       .  S
C1691      H1692   1.111       .  S
C1691      C1697   1.551       .  S
C1693      H1694   1.109       .  S
C1693      C1700   1.529       .  S
C1695      C1698   1.377       .  D
C1695      C1866   1.493       .  S
C1696      C1699   1.374       .  D
C1696      C1853   1.485       .  S
C1697      C1700   1.378       .  D
C1697      C1885   1.483       .  S
C1698      C1805   1.482       .  S
C1699      C1821   1.477       .  S
C1700      C1834   1.489       .  S
Zn1701     O1705   1.963       .  S
Zn1701     O1706   2.016       .  S
Zn1701     O1710   2.043       .  S
Zn1701     O1717   2.011       .  S
Zn1702     O1705   1.960       .  S
Zn1702     O1707   2.034       .  S
Zn1702     O1709   2.011       .  S
Zn1702     O1713   2.014       .  S
Zn1703     O1705   1.934       .  S
Zn1703     O1708   1.992       .  S
Zn1703     O1711   1.996       .  S
Zn1703     O1714   1.984       .  S
Zn1704     O1705   1.973       .  S
Zn1704     O1712   2.054       .  S
Zn1704     O1715   2.030       .  S
Zn1704     O1716   2.028       .  S
O1706      C1718   1.273       .  A
O1707      C1719   1.274       .  A
O1708      C1720   1.271       .  A
O1709      C1718   1.273       .  A
O1710      C1720   1.275       .  A
O1711      C1719   1.270       .  A
O1712      C1721   1.278       .  A
O1713      C1722   1.273       .  A
O1714      C1721   1.269       .  A
O1715      C1722   1.275       .  A
O1716      C1723   1.275       .  A
O1717      C1723   1.274       .  A
C1718      C1786   1.471       .  S
C1719      C2077   1.465       .  S
C1720      C2061   1.472       .  S
C1721      C2045   1.470       .  S
C1722      C1754   1.476       .  S
C1723      C1773   1.474       .  S
Zn1724     O1728   1.964       .  S
Zn1724     O1729   2.032       .  S
Zn1724     O1733   2.007       .  S
Zn1724     O1740   2.026       .  S
Zn1725     O1728   1.932       .  S
Zn1725     O1730   1.971       .  S
Zn1725     O1732   1.979       .  S
Zn1725     O1736   1.990       .  S
Zn1726     O1728   1.968       .  S
Zn1726     O1731   2.014       .  S
Zn1726     O1734   2.039       .  S
Zn1726     O1737   1.999       .  S
Zn1727     O1728   1.964       .  S
Zn1727     O1735   2.026       .  S
Zn1727     O1738   2.050       .  S
Zn1727     O1739   2.023       .  S
O1729      C1741   1.274       .  A
O1730      C1742   1.265       .  A
O1731      C1743   1.274       .  A
O1732      C1741   1.269       .  A
O1733      C1743   1.273       .  A
O1734      C1742   1.274       .  A
O1735      C1744   1.275       .  A
O1736      C1745   1.270       .  A
O1737      C1744   1.271       .  A
O1738      C1745   1.277       .  A
O1739      C1746   1.274       .  A
O1740      C1746   1.274       .  A
C1741      C1837   1.464       .  S
C1742      C1818   1.461       .  S
C1743      C1770   1.469       .  S
C1744      C1789   1.471       .  S
C1745      C1802   1.468       .  S
C1746      C1757   1.477       .  S
C1747      S1753   1.707       .  A
C1747      C1752   1.386       .  A
C1747      C1748   1.403       .  A
C1748      C1749   1.404   1_556  A
C1748      H1759   1.083       .  S
C1749      C1758   1.374       .  A
C1749      C1750   1.386   1_554  A
C1750      S1756   1.707   1_556  A
C1750      C1751   1.403       .  A
C1751      C1752   1.403       .  A
C1751      H1760   1.083       .  S
C1752      C1755   1.373       .  A
S1753      C1754   1.725       .  A
C1754      C1755   1.388       .  A
C1755      H1761   1.083       .  S
S1756      C1757   1.725       .  A
C1757      C1758   1.389       .  A
C1758      H1762   1.083       .  S
C1763      S1769   1.703       .  A
C1763      C1768   1.387       .  A
C1763      C1764   1.397   1_544  A
C1764      C2539   1.399       .  A
C1764      H1775   1.083       .  S
C1765      C2538   1.402       .  A
C1765      C1774   1.369       .  A
C1765      C1766   1.386       .  A
C1766      S1772   1.709       .  A
C1766      C1767   1.402       .  A
C1767      C2542   1.403   1_556  A
C1767      H1776   1.083       .  S
C1768      C2541   1.404   1_554  A
C1768      C1771   1.370       .  A
S1769      C1770   1.721       .  A
C1770      C1771   1.388       .  A
C1771      H1777   1.083       .  S
S1772      C1773   1.724       .  A
C1773      C1774   1.387       .  A
C1774      H1778   1.083       .  S
C1779      S1785   1.706       .  A
C1779      C1784   1.387       .  A
C1780      C1781   1.402   1_556  A
C1780      H1791   1.082       .  S
C1781      C1790   1.370       .  A
C1781      C1782   1.387       .  A
C1782      S1788   1.706       .  A
C1783      C1784   1.402       .  A
C1783      H1792   1.081       .  S
C1784      C1787   1.369       .  A
S1785      C1786   1.723       .  A
C1786      C1787   1.387       .  A
C1787      H1793   1.082       .  S
S1788      C1789   1.724       .  A
C1789      C1790   1.386       .  A
C1790      H1794   1.082       .  S
C1795      S1801   1.703       .  A
C1795      C1800   1.388       .  A
C1795      C1796   1.402       .  A
C1796      C1797   1.401       .  A
C1796      H1807   1.083       .  S
C1797      C1806   1.372       .  A
C1797      C1798   1.387       .  A
C1798      S1804   1.702       .  A
C1798      C1799   1.402       .  A
C1799      C1800   1.401       .  A
C1799      H1808   1.083       .  S
C1800      C1803   1.374       .  A
S1801      C1802   1.723       .  A
C1802      C1803   1.385       .  A
C1803      H1809   1.083       .  S
S1804      C1805   1.724       .  A
C1805      C1806   1.386       .  A
C1811      S1817   1.702       .  A
C1811      C1816   1.388       .  A
C1811      C1812   1.401       .  A
C1812      C1813   1.400       .  A
C1812      H1823   1.084       .  S
C1813      C1822   1.372       .  A
C1813      C1814   1.387       .  A
C1814      S1820   1.697       .  A
C1814      C1815   1.399       .  A
C1815      C1816   1.398       .  A
C1815      H1824   1.085       .  S
C1816      C1819   1.370       .  A
S1817      C1818   1.722       .  A
C1818      C1819   1.382       .  A
C1819      H1825   1.084       .  S
S1820      C1821   1.720       .  A
C1821      C1822   1.385       .  A
C1822      H1826   1.084       .  S
C1827      S1833   1.709       .  A
C1827      C1832   1.383       .  A
C1827      C1828   1.400       .  A
C1828      C1829   1.404       .  A
C1828      H1839   1.083       .  S
C1829      C1838   1.365       .  A
C1829      C1830   1.387       .  A
C1830      S1836   1.707       .  A
C1830      C1831   1.396       .  A
C1831      C1832   1.400       .  A
C1831      H1840   1.083       .  S
C1832      C1835   1.360       .  A
S1833      C1834   1.728       .  A
C1834      C1835   1.387       .  A
C1835      H1841   1.078       .  S
S1836      C1837   1.718       .  A
C1837      C1838   1.387       .  A
C1838      H1842   1.083       .  S
C1843      S1849   1.713       .  A
C1843      C1848   1.386       .  A
C1843      C1844   1.402       .  A
C1844      C1845   1.405       .  A
C1844      H1855   1.083       .  S
C1845      C1854   1.369       .  A
C1845      C1846   1.386       .  A
C1846      S1852   1.713       .  A
C1846      C1847   1.402       .  A
C1847      C1848   1.405       .  A
C1847      H1856   1.083       .  S
C1848      C1851   1.368       .  A
S1849      C1850   1.721       .  A
C1850      C1851   1.390       .  A
C1851      H1857   1.081       .  S
S1852      C1853   1.722       .  A
C1853      C1854   1.390       .  A
C1859      S1865   1.711       .  A
C1859      C1864   1.386       .  A
C1859      C1860   1.403       .  A
C1860      C1861   1.404       .  A
C1860      H1871   1.084       .  S
C1861      C1870   1.373       .  A
C1861      C1862   1.385       .  A
C1862      S1868   1.714       .  A
C1862      C1863   1.407       .  A
C1863      C1864   1.408       .  A
C1863      H1872   1.084       .  S
C1864      C1867   1.375       .  A
S1865      C1866   1.723       .  A
C1866      C1867   1.393       .  A
C1867      H1873   1.083       .  S
S1868      C1869   1.726       .  A
C1869      C1870   1.390       .  A
C1870      H1874   1.083       .  S
C1875      S1881   1.715       .  A
C1875      C1880   1.386       .  A
C1875      C1876   1.404       .  A
C1876      C1877   1.406       .  A
C1876      H1887   1.082       .  S
C1877      C1886   1.372       .  A
C1877      C1878   1.387       .  A
C1878      S1884   1.712       .  A
C1878      C1879   1.403       .  A
C1879      C1880   1.405       .  A
C1879      H1888   1.083       .  S
C1880      C1883   1.370       .  A
S1881      C1882   1.722       .  A
C1882      C1883   1.389       .  A
C1883      H1889   1.083       .  S
S1884      C1885   1.720       .  A
C1885      C1886   1.390       .  A
C1886      H1890   1.083       .  S
C1891      S1897   1.714       .  A
C1891      C1896   1.386       .  A
C1891      C1892   1.396       .  A
C1892      C1893   1.402       .  A
C1892      H1903   1.084       .  S
C1893      C1902   1.356       .  A
C1893      C1894   1.386       .  A
C1894      S1900   1.712       .  A
C1894      C1895   1.395       .  A
C1895      C1896   1.401       .  A
C1895      H1904   1.084       .  S
C1896      C1899   1.355       .  A
S1897      C1898   1.719       .  A
C1898      C1899   1.387       .  A
C1899      H1905   1.084       .  S
S1900      C1901   1.718       .  A
C1901      C1902   1.388       .  A
C1902      H1906   1.084       .  S
C1907      S1913   1.715       .  A
C1907      C1912   1.386       .  A
C1907      C1908   1.398       .  A
C1908      C1909   1.403       .  A
C1908      H1919   1.083       .  S
C1909      C1918   1.360       .  A
C1909      C1910   1.385       .  A
C1910      S1916   1.720       .  A
C1910      C1911   1.402       .  A
C1911      C1912   1.407       .  A
C1911      H1920   1.082       .  S
C1912      C1915   1.364       .  A
S1913      C1914   1.720       .  A
C1914      C1915   1.392       .  A
C1915      H1921   1.083       .  S
S1916      C1917   1.722       .  A
C1917      C1918   1.390       .  A
C1918      H1922   1.083       .  S
C1923      S1929   1.714       .  A
C1923      C1928   1.386       .  A
C1923      C1924   1.400       .  A
C1924      C1925   1.404       .  A
C1924      H1935   1.081       .  S
C1925      C1934   1.363       .  A
C1925      C1926   1.386       .  A
C1926      S1932   1.709       .  A
C1926      C1927   1.396       .  A
C1927      C1928   1.401       .  A
C1927      H1936   1.082       .  S
C1928      C1931   1.359       .  A
S1929      C1930   1.721       .  A
C1930      C1931   1.387       .  A
C1931      H1937   1.083       .  S
S1932      C1933   1.718       .  A
C1933      C1934   1.389       .  A
C1934      H1938   1.082       .  S
C1939      S1945   1.708       .  A
C1939      C1944   1.388       .  A
C1939      C1940   1.400       .  A
C1940      C2715   1.402       .  A
C1940      H2725   1.083       .  S
C1941      C2714   1.403   1_545  A
C1941      C1950   1.369       .  A
C1941      C1942   1.387   1_545  A
C1942      S1948   1.713   1_565  A
C1942      C2717   1.402       .  A
C1943      C2716   1.400       .  A
C1943      C1944   1.401       .  A
C1943      H1952   1.083       .  S
C1944      C1947   1.366       .  A
S1945      C1946   1.717       .  A
C1946      C1947   1.382       .  A
C1947      H1953   1.082       .  S
S1948      C1949   1.723       .  A
C1949      C1950   1.387       .  A
C1950      H1954   1.083       .  S
H1951      C2714   1.083   1_545  S
C1955      S1961   1.700       .  A
C1955      C1960   1.388       .  A
C1955      C1956   1.398       .  A
C1956      H1967   1.080       .  S
C1957      C1966   1.368   1_455  A
C1957      C1958   1.387       .  A
C1958      S1964   1.708   1_455  A
C1959      C1960   1.404       .  A
C1959      H1968   1.081       .  S
C1960      C1963   1.373       .  A
S1961      C1962   1.717       .  A
C1962      C1963   1.384       .  A
C1963      H1969   1.082       .  S
S1964      C1965   1.725       .  A
C1965      C1966   1.384       .  A
C1966      H1970   1.081       .  S
C1971      S1977   1.706       .  A
C1971      C1976   1.388       .  A
C1971      C1972   1.402       .  A
C1972      C1973   1.403       .  A
C1972      H1983   1.082       .  S
C1973      C1982   1.371       .  A
C1973      C1974   1.387       .  A
C1974      S1980   1.709       .  A
C1974      C1975   1.403       .  A
C1975      C1976   1.404       .  A
C1975      H1984   1.082       .  S
C1976      C1979   1.373       .  A
S1977      C1978   1.720       .  A
C1978      C1979   1.384       .  A
C1979      H1985   1.082       .  S
S1980      C1981   1.724       .  A
C1981      C1982   1.388       .  A
C1982      H1986   1.083       .  S
C1987      S1993   1.712       .  A
C1987      C1992   1.386       .  A
C1987      C2762   1.401       .  A
C1988      C2761   1.405       .  A
C1988      C1989   1.408       .  A
C1988      H1999   1.083       .  S
C1989      C1998   1.371       .  A
C1989      C1990   1.385       .  A
C1990      S1996   1.715       .  A
C1990      C2765   1.403       .  A
C1991      C2764   1.401       .  A
C1991      C1992   1.403   1_565  A
C1991      H2000   1.083       .  S
C1992      C1995   1.365       .  A
S1993      C1994   1.720       .  A
C1994      C1995   1.387       .  A
C1995      H2001   1.083       .  S
S1996      C1997   1.721       .  A
C1997      C1998   1.393       .  A
C1998      H2002   1.081       .  S
C2003      S2009   1.718       .  A
C2003      C2008   1.385       .  A
C2003      C2004   1.406       .  A
C2004      H2015   1.083       .  S
C2005      C2014   1.372       .  A
C2005      C2006   1.385       .  A
C2006      S2012   1.716       .  A
C2006      C2007   1.404       .  A
C2007      H2016   1.083       .  S
C2008      C2011   1.371       .  A
S2009      C2010   1.725       .  A
C2010      C2011   1.391       .  A
C2011      H2017   1.081       .  S
S2012      C2013   1.723       .  A
C2013      C2014   1.394       .  A
C2014      H2018   1.080       .  S
C2019      S2025   1.717       .  A
C2019      C2024   1.385       .  A
C2019      C2020   1.408       .  A
C2020      C2021   1.409       .  A
C2020      H2031   1.082       .  S
C2021      C2030   1.376       .  A
C2021      C2022   1.386       .  A
C2022      S2028   1.713       .  A
C2022      C2023   1.403       .  A
C2023      C2024   1.405       .  A
C2023      H2032   1.083       .  S
C2024      C2027   1.372       .  A
S2025      C2026   1.726       .  A
C2026      C2027   1.389       .  A
C2027      H2033   1.081       .  S
S2028      C2029   1.722       .  A
C2029      C2030   1.394       .  A
C2030      H2034   1.082       .  S
C2035      S2041   1.701       .  A
C2035      C2040   1.386       .  A
C2035      C2036   1.402       .  A
C2036      C2037   1.401       .  A
C2036      H2047   1.082       .  S
C2037      C2046   1.374       .  A
C2037      C2038   1.387       .  A
C2038      S2044   1.702       .  A
C2038      C2039   1.402       .  A
C2039      C2040   1.401       .  A
C2039      H2048   1.082       .  S
C2040      C2043   1.372       .  A
S2041      C2042   1.725       .  A
C2042      C2043   1.387       .  A
C2043      H2823   1.081       .  S
S2044      C2045   1.725       .  A
C2045      C2046   1.385       .  A
C2046      H2050   1.083       .  S
H2049      C2817   1.080       .  S
C2051      S2057   1.705       .  A
C2051      C2056   1.384       .  A
C2051      C2052   1.399       .  A
C2052      C2053   1.402       .  A
C2052      H2063   1.083       .  S
C2053      C2062   1.366       .  A
C2053      C2054   1.386       .  A
C2054      S2060   1.712       .  A
C2054      C2055   1.402       .  A
C2055      C2056   1.404       .  A
C2055      H2064   1.082       .  S
C2056      C2059   1.368       .  A
S2057      C2058   1.726       .  A
C2058      C2059   1.390       .  A
C2059      H2065   1.082       .  S
S2060      C2061   1.723       .  A
C2061      C2062   1.387       .  A
C2062      H2066   1.083       .  S
C2067      S2073   1.706       .  A
C2067      C2072   1.387       .  A
C2067      C2068   1.399       .  A
C2068      C2069   1.401       .  A
C2068      H2079   1.083       .  S
C2069      C2078   1.367       .  A
C2069      C2070   1.387       .  A
C2070      S2076   1.708       .  A
C2070      C2071   1.400       .  A
C2071      C2072   1.401       .  A
C2071      H2080   1.083       .  S
C2072      C2075   1.365       .  A
S2073      C2074   1.721       .  A
C2074      C2075   1.383       .  A
C2075      H2081   1.083       .  S
S2076      C2077   1.720       .  A
C2077      C2078   1.385       .  A
C2078      H2082   1.083       .  S
C2083      S2089   1.710       .  A
C2083      C2088   1.386       .  A
C2083      C2084   1.403       .  A
C2084      C2085   1.404       .  A
C2084      H2095   1.082       .  S
C2085      C2094   1.372       .  A
C2085      C2086   1.388       .  A
C2086      S2092   1.708       .  A
C2086      C2087   1.402       .  A
C2087      C2088   1.403       .  A
C2087      H2096   1.082       .  S
C2088      C2091   1.371       .  A
S2089      C2090   1.723       .  A
C2090      C2091   1.389       .  A
C2091      H2097   1.083       .  S
S2092      C2093   1.720       .  A
C2093      C2094   1.384       .  A
C2094      H2098   1.082       .  S
C2099      S2105   1.709       .  A
C2099      C2104   1.387       .  A
C2099      C2100   1.403       .  A
C2100      C2101   1.404       .  A
C2100      H2111   1.083       .  S
C2101      C2110   1.370       .  A
C2101      C2102   1.389       .  A
C2102      S2108   1.700       .  A
C2102      C2103   1.395       .  A
C2103      C2104   1.396       .  A
C2103      H2112   1.083       .  S
C2104      C2107   1.363       .  A
S2105      C2106   1.724       .  A
C2106      C2107   1.381       .  A
C2107      H2113   1.083       .  S
S2108      C2109   1.714       .  A
C2109      C2110   1.384       .  A
C2110      H2114   1.083       .  S
C2115      S2121   1.707       .  A
C2115      C2120   1.388       .  A
C2115      C2116   1.401       .  A
C2116      C2117   1.402       .  A
C2116      H2127   1.083       .  S
C2117      C2126   1.370       .  A
C2117      C2118   1.388       .  A
C2118      S2124   1.702       .  A
C2118      C2119   1.399       .  A
C2119      C2120   1.399       .  A
C2119      H2128   1.083       .  S
C2120      C2123   1.365       .  A
S2121      C2122   1.720       .  A
C2122      C2123   1.381       .  A
C2123      H2129   1.083       .  S
S2124      C2125   1.722       .  A
C2125      C2126   1.385       .  A
C2126      H2130   1.083       .  S
C2131      S2137   1.708       .  A
C2131      C2136   1.388       .  A
C2131      C2132   1.404       .  A
C2132      C2133   1.404       .  A
C2132      H2143   1.083       .  S
C2133      C2142   1.374       .  A
C2133      C2134   1.387       .  A
C2134      S2140   1.707       .  A
C2134      C2135   1.403       .  A
C2135      C2136   1.403       .  A
C2135      H2144   1.083       .  S
C2136      C2139   1.374       .  A
S2137      C2138   1.723       .  A
C2138      C2139   1.385       .  A
C2139      H2145   1.083       .  S
S2140      C2141   1.721       .  A
C2141      C2142   1.385       .  A
C2142      H2146   1.083       .  S
C2147      S2153   1.707       .  A
C2147      C2152   1.387       .  A
C2147      C2148   1.403       .  A
C2148      C2149   1.403       .  A
C2148      H2159   1.083       .  S
C2149      C2158   1.376       .  A
C2149      C2150   1.387       .  A
C2150      S2156   1.707       .  A
C2150      C2151   1.405       .  A
C2151      C2152   1.405       .  A
C2151      H2160   1.084       .  S
C2152      C2155   1.376       .  A
S2153      C2154   1.724       .  A
C2154      C2155   1.387       .  A
C2155      H2935   1.083       .  S
S2156      C2157   1.726       .  A
C2157      C2158   1.384       .  A
C2158      H2162   1.083       .  S
H2161      C2929   1.083   1_545  S
C2163      S2169   1.719       .  A
C2163      C2168   1.385       .  A
C2163      C2164   1.408       .  A
C2164      C2165   1.410       .  A
C2164      H2175   1.083       .  S
C2165      C2174   1.377       .  A
C2165      C2166   1.385       .  A
C2166      S2172   1.715       .  A
C2166      C2167   1.405       .  A
C2167      C2168   1.407       .  A
C2167      H2176   1.083       .  S
C2168      C2171   1.374       .  A
S2169      C2170   1.727       .  A
C2170      C2171   1.393       .  A
C2171      H2177   1.082       .  S
S2172      C2173   1.724       .  A
C2173      C2174   1.395       .  A
C2174      H2178   1.082       .  S
C2179      S2185   1.701       .  A
C2179      C2184   1.388       .  A
C2179      C2180   1.398       .  A
C2180      C2181   1.399       .  A
C2180      H2191   1.083       .  S
C2181      C2190   1.367       .  A
C2181      C2182   1.387       .  A
C2182      S2188   1.706       .  A
C2182      C2183   1.402       .  A
C2183      C2184   1.402       .  A
C2183      H2192   1.083       .  S
C2184      C2187   1.370       .  A
S2185      C2186   1.718       .  A
C2186      C2187   1.384       .  A
C2187      H2193   1.083       .  S
S2188      C2189   1.722       .  A
C2189      C2190   1.384       .  A
C2190      H2194   1.083       .  S
C2195      S2201   1.704       .  A
C2195      C2200   1.387       .  A
C2195      C2196   1.402       .  A
C2196      C2197   1.402       .  A
C2196      H2207   1.083       .  S
C2197      C2206   1.374       .  A
C2197      C2198   1.387       .  A
C2198      S2204   1.707       .  A
C2198      C2199   1.404       .  A
C2199      C2200   1.404       .  A
C2199      H2208   1.083       .  S
C2200      C2203   1.375       .  A
S2201      C2202   1.720       .  A
C2202      C2203   1.385       .  A
C2203      H2209   1.083       .  S
S2204      C2205   1.725       .  A
C2205      C2206   1.388       .  A
C2206      H2210   1.083       .  S
C2211      S2217   1.702       .  A
C2211      C2216   1.388       .  A
C2211      C2212   1.397       .  A
C2212      C2213   1.398       .  A
C2212      H2223   1.083       .  S
C2213      C2222   1.363       .  A
C2213      C2214   1.388       .  A
C2214      S2220   1.706       .  A
C2214      C2215   1.399       .  A
C2215      C2216   1.401       .  A
C2215      H2224   1.084       .  S
C2216      C2219   1.367       .  A
S2217      C2218   1.720       .  A
C2218      C2219   1.385       .  A
C2219      H2225   1.084       .  S
S2220      C2221   1.719       .  A
C2221      C2222   1.379       .  A
C2222      H2226   1.080       .  S
C2227      S2233   1.718       .  A
C2227      C2232   1.385       .  A
C2227      C2228   1.401       .  A
C2228      C2229   1.406       .  A
C2228      H2239   1.082       .  S
C2229      C2238   1.363       .  A
C2229      C2230   1.386       .  A
C2230      S2236   1.710       .  A
C2230      C2231   1.395       .  A
C2231      C2232   1.400       .  A
C2231      H2240   1.082       .  S
C2232      C2235   1.357       .  A
S2233      C2234   1.723       .  A
C2234      C2235   1.387       .  A
C2235      H2241   1.083       .  S
S2236      C2237   1.717       .  A
C2237      C2238   1.391       .  A
C2238      H2242   1.083       .  S
C2243      S2249   1.716       .  A
C2243      C2248   1.385       .  A
C2243      C2244   1.398       .  A
C2244      C2245   1.404       .  A
C2244      H2255   1.083       .  S
C2245      C2254   1.359       .  A
C2245      C2246   1.386       .  A
C2246      S2252   1.712       .  A
C2246      C2247   1.394       .  A
C2247      C2248   1.400       .  A
C2247      H2256   1.083       .  S
C2248      C2251   1.355       .  A
S2249      C2250   1.721       .  A
C2250      C2251   1.387       .  A
C2251      H2257   1.084       .  S
S2252      C2253   1.718       .  A
C2253      C2254   1.390       .  A
C2254      H2258   1.084       .  S
C2259      S2265   1.712       .  A
C2259      C2264   1.386       .  A
C2259      C2260   1.398       .  A
C2260      C2261   1.402       .  A
C2260      H2271   1.083       .  S
C2261      C2270   1.360       .  A
C2261      C2262   1.387       .  A
C2262      S2268   1.709       .  A
C2262      C2263   1.395       .  A
C2263      C2264   1.400       .  A
C2263      H2272   1.083       .  S
C2264      C2267   1.357       .  A
S2265      C2266   1.720       .  A
C2266      C2267   1.386       .  A
C2267      H2273   1.084       .  S
S2268      C2269   1.717       .  A
C2269      C2270   1.388       .  A
C2270      H2274   1.083       .  S
C2275      S2281   1.711       .  A
C2275      C2280   1.387       .  A
C2275      C2276   1.402       .  A
C2276      C3051   1.404   1_545  A
C2276      H2287   1.083   1_545  S
C2277      C3050   1.401       .  A
C2277      C2286   1.369       .  A
C2277      C2278   1.388       .  A
C2278      S2284   1.700       .  A
C2278      C3053   1.397       .  A
C2279      C3052   1.404   1_545  A
C2279      C2280   1.406       .  A
C2279      H2288   1.083       .  S
C2280      C2283   1.371       .  A
S2281      C2282   1.719       .  A
C2282      C2283   1.386       .  A
C2283      H2289   1.081       .  S
S2284      C2285   1.721       .  A
C2285      C2286   1.385       .  A
C2286      H2290   1.083       .  S
C2291      S2297   1.700       .  A
C2291      C2296   1.388       .  A
C2291      C2292   1.399       .  A
C2292      C2293   1.400   1_655  A
C2292      H2303   1.082       .  S
C2294      S2300   1.698       .  A
C2295      C2296   1.396       .  A
C2296      C2299   1.365       .  A
S2297      C2298   1.718       .  A
C2298      C2299   1.377       .  A
C2299      H2305   1.083       .  S
S2300      C2301   1.720       .  A
C2301      C2302   1.385       .  A
C2302      H2306   1.082       .  S
C2307      S2313   1.706       .  A
C2307      C2312   1.387       .  A
C2307      C2308   1.401       .  A
C2308      C2309   1.402       .  A
C2308      H2319   1.083       .  S
C2309      C2318   1.370       .  A
C2309      C2310   1.388       .  A
C2310      S2316   1.707       .  A
C2310      C2311   1.401       .  A
C2311      C2312   1.402       .  A
C2311      H2320   1.082       .  S
C2312      C2315   1.371       .  A
S2313      C2314   1.723       .  A
C2314      C2315   1.386       .  A
C2315      H2321   1.083       .  S
S2316      C2317   1.720       .  A
C2317      C2318   1.383       .  A
C2318      H2322   1.083       .  S
Zn2323     O2327   1.902       .  S
Zn2323     O2328   1.943       .  S
Zn2323     O2332   1.935       .  S
Zn2323     O2339   1.937       .  S
Zn2324     O2327   1.967       .  S
Zn2324     O2329   2.048       .  S
Zn2324     O2331   2.041       .  S
Zn2324     O2335   2.005       .  S
Zn2325     O2327   1.963       .  S
Zn2325     O2330   2.077       .  S
Zn2325     O2333   2.021       .  S
Zn2325     O2336   2.006       .  S
Zn2326     O2327   1.979       .  S
Zn2326     O2334   2.015       .  S
Zn2326     O2337   2.021       .  S
Zn2326     O2338   2.057       .  S
O2328      C2340   1.265       .  A
O2329      C2341   1.277       .  A
O2330      C2342   1.277       .  A
O2331      C2340   1.274       .  A
O2332      C2342   1.263       .  A
O2333      C2341   1.275       .  A
O2334      C2343   1.275       .  A
O2335      C2344   1.273       .  A
O2336      C2343   1.274       .  A
O2337      C2344   1.274       .  A
O2338      C2345   1.274       .  A
O2339      C2345   1.262       .  A
C2340      C3040   1.463       .  S
C2341      C3059   1.480       .  S
C2342      C3011   1.475       .  S
C2343      C3075   1.467       .  S
C2344      C3088   1.467       .  S
C2345      C3024   1.464       .  S
Zn2346     O2351   2.047       .  S
Zn2346     O2362   1.992       .  S
Zn2347     O2350   1.886       .  S
Zn2347     O2358   1.962   1_545  S
Zn2348     O2356   2.044       .  S
Zn2348     O2359   2.004       .  S
Zn2349     O2350   1.956   1_565  S
Zn2349     O2360   2.065       .  S
O2351      C2363   1.273       .  A
O2352      C2364   1.263       .  A
O2353      C2365   1.274       .  A
O2354      C2363   1.262       .  A
O2355      C2365   1.272   1_455  A
O2356      C2364   1.275       .  A
O2357      C2366   1.277       .  A
O2358      C2367   1.265       .  A
O2359      C2366   1.273       .  A
O2360      C2367   1.276       .  A
O2361      C2368   1.274       .  A
O2362      C2368   1.273       .  A
C2363      C3027   1.461       .  S
C2364      C3043   1.461       .  S
C2365      C2979   1.471       .  S
C2366      C2963   1.470       .  S
C2367      C3008   1.475       .  S
C2368      C2992   1.461       .  S
C2369      H2370   1.111       .  S
C2369      C2375   1.550       .  S
C2369      C2374   1.552       .  S
C2369      C2373   1.545       .  S
C2371      H2372   1.112       .  S
C2371      C2377   1.521       .  S
C2371      C2376   1.524       .  S
C2371      C2378   1.527       .  S
C2373      C2376   1.367       .  D
C2373      C2915   1.475       .  S
C2374      C2377   1.371       .  D
C2374      C2931   1.477       .  S
C2375      C2378   1.374       .  D
C2375      C2944   1.491       .  S
C2376      C2883   1.465       .  S
C2377      C2867   1.474       .  S
C2378      C2896   1.468       .  S
C2379      H2380   1.111       .  S
C2381      H2382   1.107       .  S
C2383      C2386   1.373       .  D
C2383      C2947   1.489       .  S
C2384      C2387   1.376       .  D
C2384      C2928   1.480       .  S
C2385      C2388   1.374       .  D
C2385      C2912   1.477       .  S
C2386      C2848   1.471       .  S
C2387      C2816   1.482       .  S
C2388      C2832   1.485       .  S
C2389      H2390   1.112       .  S
C2389      C2395   1.520       .  S
C2389      C2394   1.527       .  S
C2389      C2393   1.526       .  S
C2391      H2392   1.111       .  S
C2391      C2397   1.549       .  S
C2391      C2396   1.548       .  S
C2391      C2398   1.551       .  S
C2393      C2396   1.375       .  D
C2393      C2720   1.482       .  S
C2394      C2397   1.376       .  D
C2394      C2752   1.472       .  S
C2395      C2398   1.373       .  D
C2395      C2736   1.463       .  S
C2396      C2771   1.480       .  S
C2397      C2800   1.491       .  S
C2398      C2784   1.491       .  S
C2399      H2400   1.113       .  S
C2399      C2405   1.523       .  S
C2399      C2404   1.519       .  S
C2399      C2403   1.519       .  S
C2401      H2402   1.111       .  S
C2401      C2407   1.554       .  S
C2401      C2406   1.550       .  S
C2401      C2408   1.551       .  S
C2403      C2406   1.371       .  D
C2403      C3056   1.462       .  S
C2404      C2407   1.373       .  D
C2404      C3072   1.466       .  S
C2405      C2408   1.373       .  D
C2405      C3091   1.471       .  S
C2406      C2768   1.487       .  S
C2407      C2787   1.488       .  S
C2408      C2803   1.486       .  S
Zn2409     O2413   1.954       .  S
Zn2409     O2414   2.022       .  S
Zn2409     O2418   2.077       .  S
Zn2409     O2425   2.043       .  S
Zn2410     O2413   1.951       .  S
Zn2410     O2415   2.039       .  S
Zn2410     O2417   2.010       .  S
Zn2410     O2421   2.000       .  S
Zn2411     O2413   1.889       .  S
Zn2411     O2416   1.942       .  S
Zn2411     O2419   1.944       .  S
Zn2411     O2422   1.940       .  S
Zn2412     O2413   1.957       .  S
Zn2412     O2420   2.052       .  S
Zn2412     O2423   2.030       .  S
Zn2412     O2424   2.014       .  S
O2414      C2426   1.276       .  A
O2415      C2427   1.274       .  A
O2416      C2428   1.264       .  A
O2417      C2426   1.274       .  A
O2418      C2428   1.279       .  A
O2419      C2427   1.264       .  A
O2420      C2429   1.276       .  A
O2421      C2430   1.273       .  A
O2422      C2429   1.264       .  A
O2423      C2430   1.276       .  A
O2424      C2431   1.275       .  A
O2425      C2431   1.279       .  A
C2426      C2739   1.470       .  S
C2427      C2675   1.462       .  S
C2428      C2688   1.474       .  S
C2429      C2707   1.466       .  S
C2430      C2723   1.470       .  S
C2431      C2755   1.476       .  S
Zn2432     O2436   1.885       .  S
Zn2432     O2437   1.938       .  S
Zn2433     O2436   1.965       .  S
Zn2433     O2438   1.984       .  S
Zn2433     O2440   2.054       .  S
Zn2433     O2444   2.012       .  S
Zn2434     O2439   2.056       .  S
Zn2435     O2443   2.048       .  S
Zn2435     O2447   2.090       .  S
O2437      C2449   1.262       .  A
O2438      C2450   1.270       .  A
O2439      C2451   1.275       .  A
O2440      C2449   1.273       .  A
O2441      C2451   1.261       .  A
O2442      C2450   1.276       .  A
O2443      C2452   1.279       .  A
O2445      C2452   1.275       .  A
O2446      C2453   1.276       .  A
O2447      C2454   1.279       .  A
O2448      C2454   1.262       .  A
C2449      C2704   1.468       .  S
C2450      C2899   1.463       .  S
C2451      C2672   1.461       .  S
C2452      C2864   1.478       .  S
C2453      C2880   1.468       .  S
C2454      C2691   1.477       .  S
C2455      H2456   1.113       .  S
C2455      C2461   1.518       .  S
C2455      C2460   1.523       .  S
C2455      C2459   1.519       .  S
C2457      H2458   1.110       .  S
C2457      C2463   1.554       .  S
C2457      C2462   1.551       .  S
C2457      C2464   1.561       .  S
C2459      C2462   1.369       .  D
C2459      C2995   1.460       .  S
C2460      C2463   1.375       .  D
C2460      C2960   1.466       .  S
C2461      C2464   1.377       .  D
C2461      C2976   1.474       .  S
C2462      C2656   1.490       .  S
C2463      C2643   1.496       .  S
C2464      C2624   1.491       .  S
C2465      H2466   1.111       .  S
C2465      C2471   1.552       .  S
C2467      H2468   1.108       .  S
C2467      C2474   1.532       .  S
C2469      C2472   1.376       .  D
C2469      C2640   1.497       .  S
C2470      C2473   1.378       .  D
C2470      C2627   1.491       .  S
C2471      C2474   1.379       .  D
C2471      C2659   1.490       .  S
C2472      C2579   1.470       .  S
C2473      C2595   1.484       .  S
C2474      C2608   1.491       .  S
Zn2475     O2479   1.951       .  S
Zn2475     O2480   2.000       .  S
Zn2475     O2484   2.027       .  S
Zn2475     O2491   1.990       .  S
Zn2476     O2479   1.960       .  S
Zn2476     O2481   2.032       .  S
Zn2476     O2483   2.009       .  S
Zn2476     O2487   2.017       .  S
Zn2477     O2479   1.928       .  S
Zn2477     O2482   1.999       .  S
Zn2477     O2485   1.997       .  S
Zn2477     O2488   1.974       .  S
Zn2478     O2479   1.967       .  S
Zn2478     O2486   2.030       .  S
Zn2478     O2489   2.005       .  S
Zn2478     O2490   2.026       .  S
O2480      C2492   1.272       .  A
O2481      C2493   1.274       .  A
O2482      C2494   1.271       .  A
O2483      C2492   1.273       .  A
O2484      C2494   1.273       .  A
O2485      C2493   1.270       .  A
O2486      C2495   1.275       .  A
O2487      C2496   1.273       .  A
O2488      C2495   1.269       .  A
O2489      C2496   1.273       .  A
O2490      C2497   1.273       .  A
O2491      C2497   1.271       .  A
C2492      C2560   1.467       .  S
C2493      C2851   1.465       .  S
C2494      C2835   1.469       .  S
C2495      C2819   1.463       .  S
C2496      C2528   1.471       .  S
C2497      C2547   1.470       .  S
Zn2498     O2502   1.960       .  S
Zn2498     O2503   2.025       .  S
Zn2498     O2507   2.007       .  S
Zn2498     O2514   2.012       .  S
Zn2499     O2502   1.929       .  S
Zn2499     O2504   1.983       .  S
Zn2499     O2506   1.973       .  S
Zn2499     O2510   1.972       .  S
Zn2500     O2502   1.964       .  S
Zn2500     O2505   2.023       .  S
Zn2500     O2508   2.058       .  S
Zn2500     O2511   1.996       .  S
Zn2501     O2502   1.972       .  S
Zn2501     O2509   2.029       .  S
Zn2501     O2512   2.038       .  S
Zn2501     O2513   2.027       .  S
O2503      C2515   1.273       .  A
O2504      C2516   1.266       .  A
O2505      C2517   1.275       .  A
O2506      C2515   1.268       .  A
O2507      C2517   1.273       .  A
O2508      C2516   1.276       .  A
O2509      C2518   1.276       .  A
O2510      C2519   1.268       .  A
O2511      C2518   1.272       .  A
O2512      C2519   1.276       .  A
O2513      C2520   1.273       .  A
O2514      C2520   1.272       .  A
C2515      C2611   1.462       .  S
C2516      C2592   1.471       .  S
C2517      C2544   1.471       .  S
C2518      C2563   1.470       .  S
C2519      C2576   1.458       .  S
C2520      C2531   1.474       .  S
C2521      S2527   1.707       .  A
C2521      C2526   1.386       .  A
C2521      C2522   1.401       .  A
C2522      C2523   1.403   1_556  A
C2522      H2533   1.083       .  S
C2523      C2532   1.369       .  A
C2523      C2524   1.386   1_554  A
C2524      S2530   1.708   1_556  A
C2524      C2525   1.401       .  A
C2525      C2526   1.403       .  A
C2525      H2534   1.083       .  S
C2526      C2529   1.369       .  A
S2527      C2528   1.724       .  A
C2528      C2529   1.387       .  A
C2529      H2535   1.083       .  S
S2530      C2531   1.724       .  A
C2531      C2532   1.388       .  A
C2532      H2536   1.083       .  S
C2537      S2543   1.706       .  A
C2537      C2542   1.387       .  A
C2537      C2538   1.400   1_554  A
C2538      H2549   1.083       .  S
C2539      C2548   1.364       .  A
C2539      C2540   1.386       .  A
C2540      S2546   1.711       .  A
C2540      C2541   1.403   1_565  A
C2541      H2550   1.083       .  S
C2542      C2545   1.371       .  A
S2543      C2544   1.723       .  A
C2544      C2545   1.387       .  A
C2545      H2551   1.083       .  S
S2546      C2547   1.724       .  A
C2547      C2548   1.385       .  A
C2548      H2552   1.083       .  S
C2553      S2559   1.703       .  A
C2553      C2558   1.387       .  A
C2554      C2555   1.401   1_456  A
C2554      H2565   1.082       .  S
C2555      C2564   1.370       .  A
C2555      C2556   1.387       .  A
C2556      S2562   1.703       .  A
C2557      C2558   1.401       .  A
C2557      H2566   1.082       .  S
C2558      C2561   1.369       .  A
S2559      C2560   1.722       .  A
C2560      C2561   1.387       .  A
C2561      H2567   1.082       .  S
S2562      C2563   1.724       .  A
C2563      C2564   1.386       .  A
C2564      H2568   1.082       .  S
C2569      S2575   1.698       .  A
C2569      C2574   1.388       .  A
C2569      C2570   1.397       .  A
C2570      C2571   1.397       .  A
C2570      H2581   1.083       .  S
C2571      C2580   1.367       .  A
C2571      C2572   1.388       .  A
C2572      S2578   1.701       .  A
C2572      C2573   1.401       .  A
C2573      C2574   1.400       .  A
C2573      H2582   1.083       .  S
C2574      C2577   1.371       .  A
S2575      C2576   1.719       .  A
C2576      C2577   1.383       .  A
C2577      H2583   1.083       .  S
S2578      C2579   1.723       .  A
C2579      C2580   1.381       .  A
C2585      S2591   1.704       .  A
C2585      C2590   1.388       .  A
C2585      C2586   1.405       .  A
C2586      C2587   1.402       .  A
C2586      H2597   1.084       .  S
C2587      C2596   1.377       .  A
C2587      C2588   1.386       .  A
C2588      S2594   1.697   1_655  A
C2588      C2589   1.402       .  A
C2589      C2590   1.400       .  A
C2589      H2598   1.085       .  S
C2590      C2593   1.375       .  A
S2591      C2592   1.724       .  A
C2592      C2593   1.385       .  A
C2593      H2599   1.084       .  S
S2594      C2595   1.722   1_455  A
C2595      C2596   1.388       .  A
C2596      H2600   1.083       .  S
C2601      S2607   1.707       .  A
C2601      C2606   1.383       .  A
C2601      C2602   1.399       .  A
C2602      C2603   1.402       .  A
C2602      H2613   1.083       .  S
C2603      C2612   1.363       .  A
C2603      C2604   1.387       .  A
C2604      S2610   1.709       .  A
C2604      C2605   1.397       .  A
C2605      C2606   1.401       .  A
C2605      H2614   1.083       .  S
C2606      C2609   1.360       .  A
S2607      C2608   1.728       .  A
C2608      C2609   1.387       .  A
C2609      H2615   1.076       .  S
S2610      C2611   1.719       .  A
C2611      C2612   1.385       .  A
C2612      H2616   1.083       .  S
C2617      S2623   1.713       .  A
C2617      C2622   1.385       .  A
C2617      C2618   1.404       .  A
C2618      C2619   1.406       .  A
C2618      H2629   1.083       .  S
C2619      C2628   1.372       .  A
C2619      C2620   1.385       .  A
C2620      S2626   1.714       .  A
C2620      C2621   1.405       .  A
C2621      C2622   1.407       .  A
C2621      H2630   1.083       .  S
C2622      C2625   1.372       .  A
S2623      C2624   1.723       .  A
C2624      C2625   1.393       .  A
C2625      H2631   1.082       .  S
S2626      C2627   1.725       .  A
C2627      C2628   1.391       .  A
C2633      S2639   1.714       .  A
C2633      C2638   1.385       .  A
C2633      C2634   1.406       .  A
C2634      C2635   1.407       .  A
C2634      H2645   1.084       .  S
C2635      C2644   1.375       .  A
C2635      C2636   1.385       .  A
C2636      S2642   1.715       .  A
C2636      C2637   1.407       .  A
C2637      C2638   1.408       .  A
C2637      H2646   1.084       .  S
C2638      C2641   1.376       .  A
S2639      C2640   1.726       .  A
C2640      C2641   1.394       .  A
C2641      H2647   1.083       .  S
S2642      C2643   1.725       .  A
C2643      C2644   1.393       .  A
C2644      H2648   1.082       .  S
C2649      S2655   1.715       .  A
C2649      C2654   1.385       .  A
C2649      C2650   1.404       .  A
C2650      C2651   1.406       .  A
C2650      H2661   1.082       .  S
C2651      C2660   1.374       .  A
C2651      C2652   1.386       .  A
C2652      S2658   1.716       .  A
C2652      C2653   1.407       .  A
C2653      C2654   1.408       .  A
C2653      H2662   1.083       .  S
C2654      C2657   1.374       .  A
S2655      C2656   1.721       .  A
C2656      C2657   1.392       .  A
C2657      H2663   1.082       .  S
S2658      C2659   1.724       .  A
C2659      C2660   1.390       .  A
C2660      H2664   1.083       .  S
C2665      S2671   1.716       .  A
C2665      C2670   1.386       .  A
C2665      C2666   1.398       .  A
C2666      C2667   1.404       .  A
C2666      H2677   1.084       .  S
C2667      C2676   1.360       .  A
C2667      C2668   1.387       .  A
C2668      S2674   1.706       .  A
C2668      C2669   1.392       .  A
C2669      C2670   1.397       .  A
C2669      H2678   1.084       .  S
C2670      C2673   1.351       .  A
S2671      C2672   1.719       .  A
C2672      C2673   1.385       .  A
C2673      H2679   1.085       .  S
S2674      C2675   1.717       .  A
C2675      C2676   1.388       .  A
C2676      H2680   1.084       .  S
C2681      S2687   1.716       .  A
C2681      C2686   1.386       .  A
C2681      C2682   1.398       .  A
C2682      C2683   1.404       .  A
C2682      H2693   1.083       .  S
C2683      C2692   1.360       .  A
C2683      C2684   1.385       .  A
C2684      S2690   1.720       .  A
C2684      C2685   1.401       .  A
C2685      C2686   1.407       .  A
C2685      H2694   1.082       .  S
C2686      C2689   1.363       .  A
S2687      C2688   1.720       .  A
C2688      C2689   1.392       .  A
C2689      H2695   1.083       .  S
S2690      C2691   1.723       .  A
C2691      C2692   1.391       .  A
C2692      H2696   1.083       .  S
C2697      S2703   1.714       .  A
C2697      C2702   1.386       .  A
C2697      C2698   1.399       .  A
C2698      C2699   1.404       .  A
C2698      H2709   1.081       .  S
C2699      C2708   1.361       .  A
C2699      C2700   1.386       .  A
C2700      S2706   1.711       .  A
C2700      C2701   1.396       .  A
C2701      C2702   1.401       .  A
C2701      H2710   1.082       .  S
C2702      C2705   1.359       .  A
S2703      C2704   1.720       .  A
C2704      C2705   1.387       .  A
C2705      H2711   1.083       .  S
S2706      C2707   1.718       .  A
C2707      C2708   1.389       .  A
C2708      H2712   1.083       .  S
C2713      S2719   1.710       .  A
C2713      C2718   1.386       .  A
C2713      C2714   1.401       .  A
C2715      C2724   1.367       .  A
C2715      C2716   1.387       .  A
C2716      S2722   1.708       .  A
C2717      C2718   1.404       .  A
C2717      H2726   1.083       .  S
C2718      C2721   1.369       .  A
S2719      C2720   1.724       .  A
C2720      C2721   1.385       .  A
C2721      H2727   1.082       .  S
S2722      C2723   1.722       .  A
C2723      C2724   1.387       .  A
C2724      H2728   1.083       .  S
C2729      S2735   1.701       .  A
C2729      C2734   1.388       .  A
C2729      C2730   1.397       .  A
C2730      H2741   1.080       .  S
C2731      C2740   1.366   1_455  A
C2731      C2732   1.387       .  A
C2732      S2738   1.707   1_455  A
C2733      C2734   1.402       .  A
C2733      H2742   1.081       .  S
C2734      C2737   1.368       .  A
S2735      C2736   1.718       .  A
C2736      C2737   1.381       .  A
C2737      H2743   1.082       .  S
S2738      C2739   1.725       .  A
C2739      C2740   1.384       .  A
C2740      H2744   1.081       .  S
C2745      S2751   1.708       .  A
C2745      C2750   1.388       .  A
C2745      C2746   1.403       .  A
C2746      C2747   1.404       .  A
C2746      H2757   1.082       .  S
C2747      C2756   1.372       .  A
C2747      C2748   1.387       .  A
C2748      S2754   1.709       .  A
C2748      C2749   1.402       .  A
C2749      C2750   1.403       .  A
C2749      H2758   1.082       .  S
C2750      C2753   1.372       .  A
S2751      C2752   1.721       .  A
C2752      C2753   1.383       .  A
C2753      H2759   1.082       .  S
S2754      C2755   1.723       .  A
C2755      C2756   1.389       .  A
C2756      H2760   1.083       .  S
C2761      S2767   1.717       .  A
C2761      C2766   1.385       .  A
C2762      C2763   1.403   1_545  A
C2762      H2773   1.083       .  S
C2763      C2772   1.366       .  A
C2763      C2764   1.386       .  A
C2764      S2770   1.712       .  A
C2765      C2766   1.405       .  A
C2765      H2774   1.083       .  S
C2766      C2769   1.369       .  A
S2767      C2768   1.723       .  A
C2768      C2769   1.389       .  A
C2769      H2775   1.082       .  S
S2770      C2771   1.720       .  A
C2771      C2772   1.387       .  A
C2772      H2776   1.083       .  S
C2777      S2783   1.717       .  A
C2777      C2782   1.385       .  A
C2777      C2778   1.406       .  A
C2778      H2789   1.083       .  S
C2779      C2788   1.372       .  A
C2779      C2780   1.385       .  A
C2780      S2786   1.714       .  A
C2780      C2781   1.403       .  A
C2781      H2790   1.083       .  S
C2782      C2785   1.370       .  A
S2783      C2784   1.725       .  A
C2784      C2785   1.389       .  A
C2785      H2791   1.080       .  S
S2786      C2787   1.721       .  A
C2787      C2788   1.391       .  A
C2788      H2792   1.081       .  S
C2793      S2799   1.712       .  A
C2793      C2798   1.385       .  A
C2793      C2794   1.403       .  A
C2794      C2795   1.405       .  A
C2794      H2805   1.083       .  S
C2795      C2804   1.370       .  A
C2795      C2796   1.386       .  A
C2796      S2802   1.712       .  A
C2796      C2797   1.403       .  A
C2797      C2798   1.405       .  A
C2797      H2806   1.083       .  S
C2798      C2801   1.370       .  A
S2799      C2800   1.725       .  A
C2800      C2801   1.391       .  A
C2801      H2807   1.080       .  S
S2802      C2803   1.722       .  A
C2803      C2804   1.390       .  A
C2804      H2808   1.082       .  S
C2809      S2815   1.702       .  A
C2809      C2814   1.386       .  A
C2809      C2810   1.402       .  A
C2810      C2811   1.401       .  A
C2810      H2821   1.082       .  S
C2811      C2820   1.371       .  A
C2811      C2812   1.388       .  A
C2812      S2818   1.697       .  A
C2812      C2813   1.397       .  A
C2813      C2814   1.397       .  A
C2813      H2822   1.082       .  S
C2814      C2817   1.367       .  A
S2815      C2816   1.726       .  A
C2816      C2817   1.385       .  A
S2818      C2819   1.721       .  A
C2819      C2820   1.385       .  A
C2820      H2824   1.083       .  S
C2825      S2831   1.701       .  A
C2825      C2830   1.386       .  A
C2825      C2826   1.396       .  A
C2826      C2827   1.398       .  A
C2826      H2837   1.083       .  S
C2827      C2836   1.364       .  A
C2827      C2828   1.387       .  A
C2828      S2834   1.713       .  A
C2828      C2829   1.405       .  A
C2829      C2830   1.407       .  A
C2829      H2838   1.082       .  S
C2830      C2833   1.372       .  A
S2831      C2832   1.722       .  A
C2832      C2833   1.390       .  A
C2833      H2839   1.083   1_565  S
S2834      C2835   1.725       .  A
C2835      C2836   1.383       .  A
C2836      H2840   1.083       .  S
C2841      S2847   1.707       .  A
C2841      C2846   1.387       .  A
C2841      C2842   1.400       .  A
C2842      C2843   1.403       .  A
C2842      H2853   1.083       .  S
C2843      C2852   1.367       .  A
C2843      C2844   1.388       .  A
C2844      S2850   1.706       .  A
C2844      C2845   1.397       .  A
C2845      C2846   1.399       .  A
C2845      H2854   1.083       .  S
C2846      C2849   1.362       .  A
S2847      C2848   1.723       .  A
C2848      C2849   1.381       .  A
C2849      H2855   1.083       .  S
S2850      C2851   1.719       .  A
C2851      C2852   1.386       .  A
C2852      H2856   1.083       .  S
C2857      S2863   1.711       .  A
C2857      C2862   1.386       .  A
C2857      C2858   1.404       .  A
C2858      C2859   1.405       .  A
C2858      H2869   1.081       .  S
C2859      C2868   1.373       .  A
C2859      C2860   1.388       .  A
C2860      S2866   1.709       .  A
C2860      C2861   1.402       .  A
C2861      C2862   1.403       .  A
C2861      H2870   1.082       .  S
C2862      C2865   1.371       .  A
S2863      C2864   1.725       .  A
C2864      C2865   1.389       .  A
C2865      H2871   1.082       .  S
S2866      C2867   1.720       .  A
C2867      C2868   1.384       .  A
C2868      H2872   1.082       .  S
C2873      S2879   1.708       .  A
C2873      C2878   1.387       .  A
C2873      C2874   1.402       .  A
C2874      C2875   1.403       .  A
C2874      H2885   1.083       .  S
C2875      C2884   1.369       .  A
C2875      C2876   1.388       .  A
C2876      S2882   1.703       .  A
C2876      C2877   1.397       .  A
C2877      C2878   1.398       .  A
C2877      H2886   1.083       .  S
C2878      C2881   1.365       .  A
S2879      C2880   1.724       .  A
C2880      C2881   1.384       .  A
C2881      H2887   1.083       .  S
S2882      C2883   1.715       .  A
C2883      C2884   1.383       .  A
C2884      H2888   1.083       .  S
C2889      S2895   1.705       .  A
C2889      C2894   1.388       .  A
C2889      C2890   1.400       .  A
C2890      C2891   1.401       .  A
C2890      H2901   1.083       .  S
C2891      C2900   1.369       .  A
C2891      C2892   1.388       .  A
C2892      S2898   1.700       .  A
C2892      C2893   1.397       .  A
C2893      C2894   1.398       .  A
C2893      H2902   1.083       .  S
C2894      C2897   1.364       .  A
S2895      C2896   1.722       .  A
C2896      C2897   1.380       .  A
C2897      H2903   1.083       .  S
S2898      C2899   1.721       .  A
C2899      C2900   1.384       .  A
C2900      H2904   1.083       .  S
C2905      S2911   1.708       .  A
C2905      C2910   1.387       .  A
C2905      C2906   1.403       .  A
C2906      C2907   1.403       .  A
C2906      H2917   1.083       .  S
C2907      C2916   1.373       .  A
C2907      C2908   1.387       .  A
C2908      S2914   1.710       .  A
C2908      C2909   1.405       .  A
C2909      C2910   1.405       .  A
C2909      H2918   1.083       .  S
C2910      C2913   1.375       .  A
S2911      C2912   1.721       .  A
C2912      C2913   1.387       .  A
C2913      H2919   1.083       .  S
S2914      C2915   1.722       .  A
C2915      C2916   1.384       .  A
C2916      H2920   1.083       .  S
C2921      S2927   1.709       .  A
C2921      C2926   1.387       .  A
C2921      C2922   1.404       .  A
C2922      C2923   1.404       .  A
C2922      H2933   1.083       .  S
C2923      C2932   1.375       .  A
C2923      C2924   1.387       .  A
C2924      S2930   1.706       .  A
C2924      C2925   1.403       .  A
C2925      C2926   1.403       .  A
C2925      H2934   1.084       .  S
C2926      C2929   1.374       .  A
S2927      C2928   1.724       .  A
C2928      C2929   1.385       .  A
S2930      C2931   1.724       .  A
C2931      C2932   1.384       .  A
C2932      H2936   1.083       .  S
C2937      S2943   1.717       .  A
C2937      C2942   1.385       .  A
C2937      C2938   1.406       .  A
C2938      C2939   1.408       .  A
C2938      H2949   1.083       .  S
C2939      C2948   1.374       .  A
C2939      C2940   1.386       .  A
C2940      S2946   1.714       .  A
C2940      C2941   1.404       .  A
C2941      C2942   1.406       .  A
C2941      H2950   1.083       .  S
C2942      C2945   1.372       .  A
S2943      C2944   1.724       .  A
C2944      C2945   1.391       .  A
C2945      H2951   1.083       .  S
S2946      C2947   1.722       .  A
C2947      C2948   1.392       .  A
C2948      H2952   1.083       .  S
C2953      S2959   1.703       .  A
C2953      C2958   1.388       .  A
C2953      C2954   1.399       .  A
C2954      C2955   1.400       .  A
C2954      H2965   1.083       .  S
C2955      C2964   1.369       .  A
C2955      C2956   1.387       .  A
C2956      S2962   1.704       .  A
C2956      C2957   1.401       .  A
C2957      C2958   1.401       .  A
C2957      H2966   1.083       .  S
C2958      C2961   1.370       .  A
S2959      C2960   1.718       .  A
C2960      C2961   1.382       .  A
C2961      H2967   1.083       .  S
S2962      C2963   1.724       .  A
C2963      C2964   1.385       .  A
C2964      H2968   1.083       .  S
C2969      S2975   1.702       .  A
C2969      C2974   1.388       .  A
C2969      C2970   1.401       .  A
C2970      C2971   1.401       .  A
C2970      H2981   1.083       .  S
C2971      C2980   1.372       .  A
C2971      C2972   1.387       .  A
C2972      S2978   1.705       .  A
C2972      C2973   1.402       .  A
C2973      C2974   1.402       .  A
C2973      H2982   1.083       .  S
C2974      C2977   1.373       .  A
S2975      C2976   1.721       .  A
C2976      C2977   1.384       .  A
C2977      H2983   1.083       .  S
S2978      C2979   1.723       .  A
C2979      C2980   1.386       .  A
C2980      H2984   1.083       .  S
C2985      S2991   1.702       .  A
C2985      C2990   1.388       .  A
C2985      C2986   1.396       .  A
C2986      C2987   1.398       .  A
C2986      H2997   1.083       .  S
C2987      C2996   1.363       .  A
C2987      C2988   1.388       .  A
C2988      S2994   1.705       .  A
C2988      C2989   1.398       .  A
C2989      C2990   1.400       .  A
C2989      H2998   1.084       .  S
C2990      C2993   1.364       .  A
S2991      C2992   1.719       .  A
C2992      C2993   1.385       .  A
C2993      H2999   1.084       .  S
S2994      C2995   1.717       .  A
C2995      C2996   1.378       .  A
C2996      H3000   1.083       .  S
C3001      S3007   1.713       .  A
C3001      C3006   1.386       .  A
C3001      C3002   1.398       .  A
C3002      C3003   1.403       .  A
C3002      H3013   1.082       .  S
C3003      C3012   1.361       .  A
C3003      C3004   1.385       .  A
C3004      S3010   1.719       .  A
C3004      C3005   1.402       .  A
C3005      C3006   1.407       .  A
C3005      H3014   1.081       .  S
C3006      C3009   1.366       .  A
S3007      C3008   1.721       .  A
C3008      C3009   1.391       .  A
C3009      H3015   1.082       .  S
S3010      C3011   1.722       .  A
C3011      C3012   1.390       .  A
C3012      H3016   1.083       .  S
C3017      S3023   1.709       .  A
C3017      C3022   1.386       .  A
C3017      C3018   1.396       .  A
C3018      C3019   1.400       .  A
C3018      H3029   1.083       .  S
C3019      C3028   1.358       .  A
C3019      C3020   1.386       .  A
C3020      S3026   1.711       .  A
C3020      C3021   1.398       .  A
C3021      C3022   1.403       .  A
C3021      H3030   1.083       .  S
C3022      C3025   1.361       .  A
S3023      C3024   1.718       .  A
C3024      C3025   1.389       .  A
C3025      H3031   1.084       .  S
S3026      C3027   1.720       .  A
C3027      C3028   1.387       .  A
C3028      H3032   1.084       .  S
C3033      S3039   1.710       .  A
C3033      C3038   1.387       .  A
C3033      C3034   1.395       .  A
C3034      C3035   1.400       .  A
C3034      H3045   1.083       .  S
C3035      C3044   1.356       .  A
C3035      C3036   1.386       .  A
C3036      S3042   1.710       .  A
C3036      C3037   1.395       .  A
C3037      C3038   1.400       .  A
C3037      H3046   1.083       .  S
C3038      C3041   1.357       .  A
S3039      C3040   1.719       .  A
C3040      C3041   1.386       .  A
C3041      H3047   1.083       .  S
S3042      C3043   1.718       .  A
C3043      C3044   1.386       .  A
C3044      H3048   1.084       .  S
C3049      S3055   1.706       .  A
C3049      C3054   1.388       .  A
C3049      C3050   1.400       .  A
C3050      H3061   1.083       .  S
C3051      C3060   1.371       .  A
C3051      C3052   1.386       .  A
C3052      S3058   1.714       .  A
C3053      C3054   1.398       .  A
C3053      H3062   1.083       .  S
C3054      C3057   1.363       .  A
S3055      C3056   1.717       .  A
C3056      C3057   1.379       .  A
C3057      H3063   1.082       .  S
S3058      C3059   1.726       .  A
C3059      C3060   1.389       .  A
C3060      H3064   1.083       .  S
C3065      S3071   1.701       .  A
C3065      C3070   1.388       .  A
C3065      C3066   1.399       .  A
C3066      C3067   1.399   1_655  A
C3066      H3077   1.082       .  S
C3068      S3074   1.703       .  A
C3069      C3070   1.401       .  A
C3070      C3073   1.370       .  A
S3071      C3072   1.717       .  A
C3072      C3073   1.382       .  A
C3073      H3079   1.082       .  S
S3074      C3075   1.723       .  A
C3075      C3076   1.385       .  A
C3076      H3080   1.082       .  S
C3081      S3087   1.701       .  A
C3081      C3086   1.388       .  A
C3081      C3082   1.396       .  A
C3082      C3083   1.397       .  A
C3082      H3093   1.083       .  S
C3083      C3092   1.364       .  A
C3083      C3084   1.387       .  A
C3084      S3090   1.712       .  A
C3084      C3085   1.404       .  A
C3085      C3086   1.405       .  A
C3085      H3094   1.082       .  S
C3086      C3089   1.372       .  A
S3087      C3088   1.720       .  A
C3088      C3089   1.388       .  A
C3089      H3095   1.082       .  S
S3090      C3091   1.723       .  A
C3091      C3092   1.379       .  A
C3092      H3096   1.083       .  S
