geometry optimzed in LAMMPS
_audit_creation_date              2020-12-01 
_audit_creation_method            'lammps2cif' 
_symmetry_space_group_name_H-M    'P1' 
_symmetry_Int_Tables_number       1 
_symmetry_cell_setting            triclinic 
loop_ 
_symmetry_equiv_pos_as_xyz 
  x,y,z 
_cell_length_a                    28.35379701 
_cell_length_b                    29.774385441260875 
_cell_length_c                    31.43545825630398 
_cell_angle_alpha                 93.22017870915288 
_cell_angle_beta                  91.39966559658914 
_cell_angle_gamma                 88.20985427087031 
loop_ 
_atom_site_label 
_atom_site_type_symbol 
_atom_site_fract_x 
_atom_site_fract_y 
_atom_site_fract_z 
_atom_site_charge 
N1          N  0.45069042  0.54515883  0.29489523    -0.02600
C2          C  0.41868132  0.56611238  0.32111616     0.00000
C3          C  0.37426221  0.56615495  0.30206222    -0.22900
C4          C  0.37929016  0.54559222  0.26229947    -0.23100
C5          C  0.42626613  0.53267704  0.25886069    -0.00100
H6          H  0.34247349  0.58256774  0.31446920     0.13700
H7          H  0.35217360  0.54269745  0.23759707     0.13700
N8          N  0.55940954  0.39016415  0.86544168    -0.02600
C9          C  0.59492687  0.37294647  0.84074804     0.00000
C10         C  0.63708033  0.37339641  0.86341612    -0.22900
C11         C  0.62728712  0.39044986  0.90382849    -0.23100
C12         C  0.57937633  0.40042090  0.90431156    -0.00100
H13         H  0.67038265  0.35954408  0.85232475     0.13700
H14         H  0.65207359  0.39355196  0.93049699     0.13700
N15         N  0.66048193  0.56586589  0.98671248    -0.02600
C16         C  0.67487972  0.55772789  0.94537266     0.00000
C17         C  0.69927813  0.59403783  0.93286398    -0.22900
C18         C  0.69973202  0.62541811  0.96589173    -0.23100
C19         C  0.67679665  0.60754073  0.99880626    -0.00100
H20         H  0.71845136  0.59594647  0.90367337     0.13700
H21         H  0.71862479  0.65648662  0.96719260     0.13700
N22         N  0.40910636  0.63514974  0.00146125    -0.02600
C23         C  0.36403178  0.65018489  0.01050300     0.00000
C24         C  0.34265579  0.66712511  0.97439077    -0.22900
C25         C  0.37492575  0.66364439  0.94285172    -0.23100
C26         C  0.41538748  0.64465931  0.96016327    -0.00100
H27         H  0.30872394  0.68469463  0.97245401     0.13700
H28         H  0.37112316  0.67814651  0.91208996     0.13700
N29         N  0.33860734  0.36600267  0.17666540    -0.02600
C30         C  0.32800097  0.36915881  0.21925850     0.00000
C31         C  0.29773934  0.33547708  0.22817352    -0.22900
C32         C  0.28895589  0.31118519  0.19126430    -0.23100
C33         C  0.31332051  0.33051285  0.16010819    -0.00100
H34         H  0.28129675  0.33065149  0.25824666     0.13700
H35         H  0.26638571  0.28266253  0.18723821     0.13700
N36         N  0.59711950  0.30062242  0.16457435    -0.02600
C37         C  0.64308579  0.28769688  0.15778661     0.00000
C38         C  0.66423165  0.27515848  0.19558356    -0.22900
C39         C  0.63026025  0.27833462  0.22585672    -0.23100
C40         C  0.58918338  0.29336238  0.20601966    -0.00100
H41         H  0.69884479  0.25927673  0.19931609     0.13700
H42         H  0.63389642  0.26616291  0.25761026     0.13700
Zr43       Zr  0.50889658  0.50209065  0.00687640     2.17500
O44         O  0.47210488  0.50842184  0.93685553    -0.50400
O45         O  0.58460494  0.53559264  0.98948183    -0.73600
O46         O  0.46631672  0.57574145  0.00079634    -0.80400
O47         O  0.56050762  0.38806932  0.97468348    -0.82200
O48         O  0.42667146  0.59397972  0.06146496    -0.77800
O49         O  0.53618022  0.45418351  0.94689196    -0.89400
O50         O  0.63245276  0.53590661  0.04847110    -0.75400
O51         O  0.52633584  0.54371351  0.07192653    -0.84900
O52         O  0.57194444  0.46110126  0.04002668    -0.84600
O53         O  0.43710701  0.50029784  0.04625542    -0.71300
O54         O  0.48096178  0.42747237  0.01647849    -0.83400
Zr55       Zr  0.49087925  0.42817717  0.15675284     2.26400
Zr56       Zr  0.45591695  0.54084762  0.11232443     2.06300
Zr57       Zr  0.54436652  0.38777504  0.05059620     2.10000
Zr58       Zr  0.58936965  0.50244155  0.10481913     1.78800
O59         O  0.50934286  0.31724651  0.02535747    -0.92200
O60         O  0.60345199  0.57829348  0.13480862    -0.40100
O61         O  0.56233974  0.42847486  0.11683458    -0.76700
O62         O  0.52002600  0.50233673  0.14710335    -0.95400
O63         O  0.42741432  0.46759366  0.12315459    -0.88700
O64         O  0.47424098  0.38587733  0.09184887    -0.91500
C65         C  0.62427847  0.54381383  0.00911219     1.02200
C66         C  0.55546745  0.41466694  0.94392133     1.15200
C67         C  0.43635835  0.60064486  0.02280154     1.05900
O68         O  0.49465105  0.60821629  0.14070787    -0.93700
O69         O  0.43466977  0.53952020  0.18623114    -0.89400
O70         O  0.47135303  0.47996554  0.21664865    -0.82600
C71         C  0.44618900  0.51647068  0.21830586     1.12600
O72         O  0.37508285  0.41896700  0.98700219    -0.95700
Zr73       Zr  0.41110472  0.42612372  0.05813838     1.88900
O74         O  0.41496857  0.39523672  0.17369662    -0.72300
O75         O  0.37830998  0.57306523  0.13056448    -0.51600
O76         O  0.33565817  0.46744173  0.05609736    -0.96200
O77         O  0.39204396  0.34986042  0.03207892    -0.53500
O78         O  0.36685752  0.39595088  0.11515102    -0.72800
C79         C  0.37514073  0.38766497  0.15433890     0.99500
O80         O  0.51101903  0.41050540  0.22984717    -0.61600
O81         O  0.62458846  0.35942537  0.03696487    -0.56400
O82         O  0.54135610  0.36007303  0.16293389    -0.93100
O83         O  0.57765938  0.33693960  0.10175059    -0.91500
O84         O  0.66714690  0.46560721  0.10398401    -0.91900
O85         O  0.62991534  0.50196990  0.17403808    -0.90700
C86         C  0.57016904  0.33372525  0.14146113     1.18400
H87         H  0.59936512  0.45812920  0.02227704     0.34300
H88         H  0.52777403  0.51779713  0.17404449     0.45200
H89         H  0.46635614  0.35545497  0.09750883     0.38700
H90         H  0.41167140  0.51524794  0.03111617     0.35200
H91         H  0.58896938  0.59868827  0.11402588     0.27000
H92         H  0.38194693  0.60609277  0.13268830     0.32900
H93         H  0.33097620  0.47917376  0.08581660     0.38800
H94         H  0.66068167  0.43316537  0.09990603     0.33300
H95         H  0.62147051  0.33554875  0.01393179     0.32100
H96         H  0.53651814  0.29755173  0.01641948     0.33800
H97         H  0.35752203  0.34819059  0.03551087     0.32800
H98         H  0.62010447  0.47391911  0.18634658     0.36800
H99         H  0.49844063  0.38031067  0.23326262     0.29500
H100        H  0.48735745  0.53458300  0.92567450     0.33800
H101        H  0.37447021  0.44978920  0.97667278     0.36600
H102        H  0.64044413  0.38407280  0.02364145     0.29200
H103        H  0.54580595  0.40662018  0.23155136     0.42100
H104        H  0.47481539  0.61982117  0.16461569     0.32100
H105        H  0.58319795  0.58210141  0.16005104     0.39800
H106        H  0.40572317  0.32956527  0.05329900     0.31600
H107        H  0.35781983  0.56718330  0.10502346     0.31700
H108        H  0.43900453  0.51840377  0.94204610     0.31900
N109        N  0.57660360  0.20295825  0.55676559    -0.02600
C110        C  0.58870497  0.22896684  0.52465747     0.00000
C111        C  0.57453221  0.20942029  0.48581371    -0.22900
C112        C  0.55289039  0.17028171  0.49426470    -0.23100
C113        C  0.55408371  0.16704990  0.53795481    -0.00100
H114        H  0.58100974  0.22136025  0.45465943     0.13700
H115        H  0.54016927  0.14530526  0.47089267     0.13700
N116        N  0.43532555  0.73352451  0.60219014    -0.02600
C117        C  0.42377896  0.70712763  0.63409241     0.00000
C118        C  0.43846806  0.72678248  0.67282307    -0.22900
C119        C  0.45973397  0.76629687  0.66418854    -0.23100
C120        C  0.45815045  0.76925198  0.62044251    -0.00100
H121        H  0.43270729  0.71465307  0.70402896     0.13700
H122        H  0.47276211  0.79130357  0.68747326     0.13700
N123        N  0.59080988  0.82877776  0.74084224    -0.02600
C124        C  0.58342327  0.78462625  0.74615043     0.00000
C125        C  0.57398746  0.76119670  0.70811703    -0.22900
C126        C  0.57581674  0.79180204  0.67755219    -0.23100
C127        C  0.58563247  0.83281685  0.69821742    -0.00100
H128        H  0.56366077  0.72653889  0.70352635     0.13700
H129        H  0.56683324  0.78546811  0.64426248     0.13700
N130        N  0.67123800  0.85632751  0.44096527    -0.02600
C131        C  0.69008959  0.85504081  0.40153373     0.00000
C132        C  0.65474452  0.85788432  0.37072711    -0.22900
C133        C  0.61283961  0.86183618  0.39168846    -0.23100
C134        C  0.62368799  0.86120439  0.43483388    -0.00100
H135        H  0.65930029  0.86131380  0.33699032     0.13700
H136        H  0.57849041  0.86837311  0.37715493     0.13700
N137        N  0.40460496  0.09740124  0.41269923    -0.02600
C138        C  0.41553627  0.14034095  0.40616023     0.00000
C139        C  0.43435916  0.16086286  0.44284407    -0.22900
C140        C  0.43552834  0.12922291  0.47270638    -0.23100
C141        C  0.41669550  0.09076151  0.45381286    -0.00100
H142        H  0.45111797  0.19310425  0.44588095     0.13700
H143        H  0.45284925  0.13264741  0.50345810     0.13700
N144        N  0.35748838  0.09833578  0.71138645    -0.02600
C145        C  0.34067426  0.09962094  0.75184957     0.00000
C146        C  0.37651563  0.08927231  0.78046218    -0.22900
C147        C  0.41624670  0.08005543  0.75734381    -0.23100
C148        C  0.40385881  0.08496033  0.71496264    -0.00100
H149        H  0.37278883  0.08363965  0.81391881     0.13700
H150        H  0.44933795  0.06650175  0.76976923     0.13700
Zr151      Zr  0.45857053  0.04428662  0.57385836     2.17500
O152        O  0.39939505  0.10454313  0.56759671    -0.50400
O153        O  0.50254930  0.11316427  0.56335859    -0.73600
O154        O  0.42171032  0.06906244  0.64133082    -0.80400
O155        O  0.46024535  0.02202173  0.45490964    -0.82200
O156        O  0.46553355  0.03512171  0.69236224    -0.77800
O157        O  0.41138732  0.04065010  0.50834867    -0.89400
O158        O  0.58082098  0.09587540  0.55858807    -0.75400
O159        O  0.52650666  0.03415911  0.61875592    -0.84900
O160        O  0.52187663  0.02609132  0.52647133    -0.84600
O161        O  0.44074079  0.98179805  0.61611825    -0.71300
O162        O  0.43662293  0.97735201  0.53188091    -0.83400
Zr163      Zr  0.55447991  0.88695904  0.57318977     2.26400
Zr164      Zr  0.51033548  0.97129887  0.66005609     2.06300
Zr165      Zr  0.50104006  0.95819924  0.48611116     2.10000
Zr166      Zr  0.58958311  0.01649973  0.57153721     1.78800
O167        O  0.44186319  0.91953237  0.44150992    -0.92200
O168        O  0.62756881  0.05683675  0.63200496    -0.40100
O169        O  0.57002872  0.94894329  0.53053449    -0.76700
O170        O  0.57631634  0.95471126  0.61483951    -0.95400
O171        O  0.48985249  0.90471086  0.61858888    -0.88700
O172        O  0.48648328  0.89525813  0.52762089    -0.91500
C173        C  0.54543342  0.12353958  0.55672841     1.02200
C174        C  0.42773036  0.04739393  0.47185098     1.15200
C175        C  0.43257089  0.06268341  0.68043230     1.05900
O176        O  0.57046886  0.99960526  0.71030557    -0.93700
O177        O  0.54510693  0.90307566  0.69015297    -0.89400
O178        O  0.59567220  0.87583683  0.63998459    -0.82600
C179        C  0.57674559  0.87440936  0.67623476     1.12600
O180        O  0.34210369  0.94298139  0.56004689    -0.95700
Zr181      Zr  0.42235465  0.91465296  0.57352373     1.88900
O182        O  0.51003782  0.81955645  0.58896631    -0.72300
O183        O  0.46084654  0.95172377  0.71834436    -0.51600
O184        O  0.36828810  0.90337707  0.63069830    -0.96200
O185        O  0.38958685  0.86952405  0.51308383    -0.53500
O186        O  0.43253096  0.83919339  0.59694781    -0.72800
C187        C  0.46755333  0.81133849  0.59953172     0.99500
O188        O  0.61656987  0.82863958  0.56517270    -0.61600
O189        O  0.54397343  0.97761280  0.42384556    -0.56400
O190        O  0.59736305  0.86961591  0.50697316    -0.93100
O191        O  0.55513585  0.90240273  0.45415120    -0.91500
O192        O  0.63849121  0.02810184  0.51068884    -0.91900
O193        O  0.67082015  0.98868908  0.57976495    -0.90700
C194        C  0.58969083  0.87779094  0.46761224     1.18400
H195        H  0.52636312  0.04941408  0.50694234     0.34300
H196        H  0.60480831  0.95138193  0.63193435     0.45200
H197        H  0.48172523  0.86814881  0.50991733     0.38700
H198        H  0.41350057  0.98830831  0.63351838     0.35200
H199        H  0.60353073  0.07913610  0.64293049     0.27000
H200        H  0.42816609  0.95988587  0.70923876     0.32900
H201        H  0.38897582  0.89929802  0.65611523     0.38800
H202        H  0.62716317  0.00637274  0.48800224     0.33300
H203        H  0.52033435  0.97666098  0.40015837     0.32100
H204        H  0.41217044  0.93713821  0.44680548     0.33800
H205        H  0.35624314  0.86516500  0.52004678     0.32800
H206        H  0.67163537  0.95895905  0.56395503     0.36800
H207        H  0.64569195  0.84240629  0.57724217     0.29500
H208        H  0.40578617  0.12723542  0.59111261     0.33800
H209        H  0.34263983  0.95486764  0.53126775     0.36600
H210        H  0.55099543  0.00985840  0.42892382     0.29200
H211        H  0.60924225  0.80529810  0.58497982     0.42100
H212        H  0.56008626  0.03101754  0.71791669     0.32100
H213        H  0.63080019  0.03466582  0.65427627     0.39800
H214        H  0.40455741  0.83917205  0.51488382     0.31600
H215        H  0.46145053  0.91842980  0.71742291     0.31700
H216        H  0.36916133  0.09121691  0.57435291     0.31900
N217        N  0.05775693  0.14812275  0.99011148    -0.02600
C218        C  0.07410853  0.17477855  0.02370343     0.00000
C219        C  0.04499661  0.21256707  0.03012387    -0.22900
C220        C  0.01166510  0.21121046  0.99825658    -0.23100
C221        C  0.02200749  0.17351007  0.97213603    -0.00100
H222        H  0.05121058  0.24139730  0.05182852     0.13700
H223        H  0.98857258  0.23932628  0.99032659     0.13700
N224        N  0.19937347  0.94492329  0.15623339    -0.02600
C225        C  0.22816985  0.97798068  0.17241100     0.00000
C226        C  0.27430951  0.96923265  0.16029032    -0.22900
C227        C  0.27496209  0.92951590  0.13687395    -0.23100
C228        C  0.22932336  0.91488516  0.13503830    -0.00100
H229        H  0.30520869  0.98734575  0.17133029     0.13700
H230        H  0.30613211  0.91106697  0.12555506     0.13700
N231        N  0.98329375  0.01334185  0.26570832    -0.02600
C232        C  0.98206368  0.05788736  0.28045556     0.00000
C233        C  0.93579378  0.07388208  0.28391181    -0.22900
C234        C  0.90814088  0.03728882  0.27975346    -0.23100
C235        C  0.93812716  0.00063095  0.27156160    -0.00100
H236        H  0.92436768  0.10662301  0.29727036     0.13700
H237        H  0.87134208  0.03663333  0.28799845     0.13700
N238        N  0.93717160  0.79996771  0.15566182    -0.02600
C239        C  0.92299510  0.77101717  0.12297787     0.00000
C240        C  0.95467638  0.73498355  0.11847946    -0.22900
C241        C  0.98582588  0.73890204  0.15229136    -0.23100
C242        C  0.97034429  0.77549364  0.17809855    -0.00100
H243        H  0.95061450  0.70492655  0.09787605     0.13700
H244        H  0.00857405  0.71143583  0.16246761     0.13700
N245        N  0.80330875  0.00812057  0.98513242    -0.02600
C246        C  0.76941251  0.97994290  0.96883096     0.00000
C247        C  0.72512499  0.00040432  0.97203045    -0.22900
C248        C  0.73122930  0.04260209  0.98950900    -0.23100
C249        C  0.77895493  0.04688192  0.99722716    -0.00100
H250        H  0.69225916  0.98748604  0.95888532     0.13700
H251        H  0.70387853  0.06823562  0.99487106     0.13700
N252        N  0.03308903  0.94005980  0.86550474    -0.02600
C253        C  0.01545823  0.91133987  0.83382546     0.00000
C254        C  0.02699076  0.92491177  0.79421271    -0.22900
C255        C  0.05249370  0.96260391  0.80077640    -0.23100
C256        C  0.05619869  0.97128707  0.84430000    -0.00100
H257        H  0.01833874  0.90830919  0.76360803     0.13700
H258        H  0.06891332  0.98065167  0.77639491     0.13700
Zr259      Zr  0.97277561  0.01149998  0.99531154     2.17500
O260        O  0.93089748  0.05461607  0.94195517    -0.50400
O261        O  0.00073213  0.97781230  0.92621134    -0.73600
O262        O  0.01328275  0.08215155  0.98401749    -0.80400
O263        O  0.85434827  0.96233436  0.02502709    -0.82200
O264        O  0.08201470  0.08138773  0.02269896    -0.77800
O265        O  0.88588873  0.01582985  0.98639611    -0.89400
O266        O  0.03929601  0.91077272  0.93338691    -0.75400
O267        O  0.05000814  0.97805689  0.00188005    -0.84900
O268        O  0.96126617  0.93293259  0.00161172    -0.84600
O269        O  0.00665478  0.04764048  0.05944263    -0.71300
O270        O  0.92759808  0.00407813  0.05878180    -0.83400
Zr271      Zr  0.03163842  0.92859971  0.13733377     2.26400
Zr272      Zr  0.08439274  0.01384260  0.06520980     2.06300
Zr273      Zr  0.91830889  0.92523662  0.06574496     2.10000
Zr274      Zr  0.03809662  0.89984608  0.00970928     1.78800
O275        O  0.84310477  0.92236972  0.10104807    -0.92200
O276        O  0.11960372  0.88310652  0.99096524    -0.40100
O277        O  0.99586898  0.89288730  0.07400001    -0.76700
O278        O  0.07473308  0.93461256  0.07232952    -0.95400
O279        O  0.04129003  0.00719565  0.12939398    -0.88700
O280        O  0.95329027  0.96014538  0.12925804    -0.91500
C281        C  0.02348713  0.94263640  0.91068037     1.02200
C282        C  0.85044579  0.99453543  0.99920435     1.15200
C283        C  0.05186159  0.10070173  0.99750488     1.05900
O284        O  0.15253069  0.00440430  0.01963854    -0.93700
O285        O  0.14807545  0.98356144  0.11061111    -0.89400
O286        O  0.11708231  0.93468586  0.15463265    -0.82600
C287        C  0.15216291  0.95522786  0.14016758     1.12600
O288        O  0.91608133  0.10328696  0.09974018    -0.95700
Zr289      Zr  0.96333363  0.03835222  0.12186487     1.88900
O290        O  0.01114698  0.96415928  0.20848773    -0.72300
O291        O  0.12091995  0.07339110  0.10968700    -0.51600
O292        O  0.99660239  0.11069891  0.14362923    -0.96200
O293        O  0.88832171  0.04190415  0.15864991    -0.53500
O294        O  0.98538779  0.03515662  0.19619914    -0.72800
C295        C  0.99608262  0.00394861  0.22150777     0.99500
O296        O  0.07078530  0.86179991  0.16549431    -0.61600
O297        O  0.89533723  0.86253512  0.01724935    -0.56400
O298        O  0.98635315  0.86308692  0.15543813    -0.93100
O299        O  0.91971334  0.86214823  0.11370368    -0.91500
O300        O  0.99091048  0.83894142  0.97833883    -0.91900
O301        O  0.06887451  0.82651034  0.02972863    -0.90700
C302        C  0.94753349  0.84486602  0.14213803     1.18400
H303        H  0.94475145  0.92033979  0.97663877     0.34300
H304        H  0.10507015  0.91924844  0.07464276     0.45200
H305        H  0.93486537  0.95498485  0.15389447     0.38700
H306        H  0.00672019  0.07993892  0.05921619     0.35200
H307        H  0.11768752  0.86378423  0.96434584     0.27000
H308        H  0.14016441  0.08981368  0.09016930     0.32900
H309        H  0.97973485  0.12093008  0.16981005     0.38800
H310        H  0.00268273  0.83312355  0.94909609     0.33300
H311        H  0.87506679  0.84436262  0.03434480     0.32100
H312        H  0.82998550  0.89311676  0.09095479     0.33800
H313        H  0.87755955  0.07386234  0.16054192     0.32800
H314        H  0.08673114  0.83273820  0.05678351     0.36800
H315        H  0.09356338  0.85083372  0.14359128     0.29500
H316        H  0.95475464  0.06116912  0.92087560     0.33800
H317        H  0.90184364  0.09352835  0.07180266     0.36600
H318        H  0.87327679  0.87596603  0.99625728     0.29200
H319        H  0.09047487  0.87166904  0.19051613     0.42100
H320        H  0.17012369  0.03243505  0.02512420     0.32100
H321        H  0.13092826  0.91219711  0.98216762     0.39800
H322        H  0.89663731  0.03566342  0.18848779     0.31600
H323        H  0.09448547  0.09451484  0.11742913     0.31700
H324        H  0.92370972  0.08391446  0.95706949     0.31900
N325        N  0.24453813  0.42249716  0.65685939    -0.02600
C326        C  0.26812351  0.39265712  0.68156952     0.00000
C327        C  0.24510881  0.35253445  0.68081956    -0.22900
C328        C  0.20568998  0.35780926  0.65542226    -0.23100
C329        C  0.20576987  0.40090013  0.64102826    -0.00100
H330        H  0.25440001  0.32362053  0.69900432     0.13700
H331        H  0.17774136  0.33399918  0.65085134     0.13700
N332        N  0.77904996  0.50144644  0.47971443    -0.02600
C333        C  0.75962588  0.52790045  0.44952977     0.00000
C334        C  0.78454426  0.56634535  0.44609854    -0.22900
C335        C  0.82083206  0.56413525  0.47496189    -0.23100
C336        C  0.81743440  0.52410296  0.49493154    -0.00100
H337        H  0.77742154  0.59280159  0.42438741     0.13700
H338        H  0.84906814  0.58774909  0.47869735     0.13700
N339        N  0.87732798  0.65840610  0.66637124    -0.02600
C340        C  0.83368263  0.67464183  0.65543414     0.00000
C341        C  0.80108303  0.64122537  0.65422712    -0.22900
C342        C  0.82555177  0.60219097  0.66197364    -0.23100
C343        C  0.87273909  0.61275881  0.66676143    -0.00100
H344        H  0.76494886  0.64372076  0.64244745     0.13700
H345        H  0.81143622  0.56888728  0.65715495     0.13700
N346        N  0.15747766  0.28800586  0.47311476    -0.02600
C347        C  0.20522329  0.28265430  0.47997163     0.00000
C348        C  0.22834329  0.32041586  0.46921589    -0.22900
C349        C  0.19453692  0.35218628  0.46085101    -0.23100
C350        C  0.15155683  0.33324660  0.46756297    -0.00100
H351        H  0.26525748  0.32732999  0.47510892     0.13700
H352        H  0.20116256  0.38757638  0.45844820     0.13700
N353        N  0.91351270  0.38376512  0.72327903    -0.02600
C354        C  0.92246323  0.33845775  0.71834645     0.09200
C355        C  0.88254255  0.31797966  0.70107751    -0.22900
C356        C  0.84642969  0.34965273  0.70389784    -0.23100
C357        C  0.86530882  0.38752332  0.72461072    -0.00100
H358        H  0.87714265  0.28215776  0.69701315     0.13700
H359        H  0.80944335  0.34152997  0.70257657     0.13700
N360        N  0.11274559  0.57210420  0.42731100    -0.02600
C361        C  0.10074253  0.61637534  0.42098789     0.00000
C362        C  0.14112934  0.64128951  0.42183025    -0.22900
C363        C  0.17871504  0.61166207  0.42314418    -0.23100
C364        C  0.16086870  0.56907904  0.42498931    -0.00100
H365        H  0.14322667  0.67583548  0.41308249     0.13700
H366        H  0.21456933  0.61994589  0.41641515     0.13700
Zr367      Zr  0.92363598  0.47061289  0.59906629     2.17500
O368        O  0.85263556  0.42599052  0.59663673    -0.50400
O369        O  0.89486645  0.53970125  0.63808446    -0.73600
O370        O  0.91207280  0.43220848  0.66575758    -0.80400
O371        O  0.89792406  0.51540796  0.49843045    -0.82200
O372        O  0.98261121  0.40470193  0.68981375    -0.77800
O373        O  0.85763697  0.48697998  0.55165697    -0.89400
O374        O  0.95095681  0.59261585  0.64542982    -0.75400
O375        O  0.98793506  0.49222058  0.64447877    -0.84900
O376        O  0.95648886  0.53458704  0.56829051    -0.84600
O377        O  0.97619890  0.40596256  0.59435383    -0.71300
O378        O  0.94860604  0.44821755  0.52755676    -0.83400
Zr379      Zr  0.10014066  0.46998061  0.54084856     2.26400
Zr380      Zr  0.04090023  0.42830868  0.63974379     2.06300
Zr381      Zr  0.98286782  0.51159616  0.49826637     2.10000
Zr382      Zr  0.02067269  0.55595326  0.61419948     1.78800
O383        O  0.96288541  0.47641260  0.42864578    -0.92200
O384        O  0.04153642  0.57019546  0.68927187    -0.40100
O385        O  0.04743099  0.53485710  0.54372082    -0.76700
O386        O  0.07565444  0.49304219  0.61217230    -0.95400
O387        O  0.06676521  0.40565521  0.56937306    -0.88700
O388        O  0.03654949  0.44838046  0.49408756    -0.91500
C389        C  0.90900360  0.57936067  0.65027721     1.02200
C390        C  0.85964708  0.50614546  0.51638648     1.15200
C391        C  0.93742667  0.40941641  0.69224505     1.05900
O392        O  0.07176423  0.45667459  0.70875851    -0.93700
O393        O  0.12448079  0.41114137  0.64214929    -0.89400
O394        O  0.16285080  0.44497659  0.59036728    -0.82600
C395        C  0.16203145  0.42136092  0.62340134     1.12600
O396        O  0.92873405  0.34703930  0.50592156    -0.95700
Zr397      Zr  0.00235705  0.38471249  0.52333500     1.88900
O398        O  0.12474831  0.40390184  0.49642397    -0.72300
O399        O  0.04581987  0.34883008  0.65446530    -0.51600
O400        O  0.00131255  0.31188839  0.55488120    -0.96200
O401        O  0.98356164  0.36879802  0.44781191    -0.53500
O402        O  0.07380696  0.34667895  0.49590029    -0.72800
C403        C  0.11354423  0.36286050  0.48704400     0.99500
O404        O  0.17999228  0.49807247  0.53880547    -0.61600
O405        O  0.95633528  0.58132573  0.46692719    -0.56400
O406        O  0.11208480  0.51862478  0.48042518    -0.93100
O407        O  0.04220452  0.54879497  0.45765392    -0.91500
O408        O  0.01147244  0.62996108  0.58516736    -0.91900
O409        O  0.09156249  0.60006359  0.62175065    -0.90700
C410        C  0.08750102  0.54468162  0.45609453     1.18400
H411        H  0.93324324  0.55926669  0.56631625     0.34300
H412        H  0.10284358  0.50138575  0.62960385     0.45200
H413        H  0.04729766  0.44245995  0.46540448     0.38700
H414        H  0.96119061  0.38060245  0.60561185     0.35200
H415        H  0.03396367  0.60261885  0.69514454     0.27000
H416        H  0.06398564  0.33430710  0.63070605     0.32900
H417        H  0.01340878  0.29008906  0.53250775     0.38800
H418        H  0.98609173  0.62677139  0.56311622     0.33300
H419        H  0.93191905  0.57238629  0.44527726     0.32100
H420        H  0.97615225  0.49625587  0.40801197     0.33800
H421        H  0.99516209  0.33743346  0.44172278     0.32800
H422        H  0.11323761  0.58597780  0.60029557     0.36800
H423        H  0.19213783  0.48772259  0.51052488     0.29500
H424        H  0.83563459  0.43413489  0.62324158     0.33800
H425        H  0.90856731  0.35445495  0.53076660     0.36600
H426        H  0.93880843  0.59845452  0.48966733     0.29200
H427        H  0.17643830  0.53120624  0.53800772     0.42100
H428        H  0.05723877  0.43827916  0.72990113     0.32100
H429        H  0.01750384  0.55465763  0.70487806     0.39800
H430        H  0.00470863  0.38708623  0.43173761     0.31600
H431        H  0.06721049  0.34712930  0.67971566     0.31700
H432        H  0.86408276  0.39449117  0.59945585     0.31900
C433        C  0.99785632  0.78983851  0.81125028    -0.04600
C434        C  0.95557833  0.79262598  0.78655332     0.09600
C435        C  0.92784752  0.83294777  0.78970644    -0.01900
C436        C  0.94309323  0.87032822  0.81566720    -0.00200
C437        C  0.98822846  0.86950740  0.83581434    -0.03800
C438        C  0.01410289  0.82810815  0.83569114     0.03200
C439        C  0.94116737  0.75410368  0.75585612     0.10100
C440        C  0.88666079  0.83845882  0.76213401     0.35900
C441        C  0.06042520  0.82661924  0.85617924     0.39400
C442        C  0.91736722  0.71727681  0.77052463    -0.04200
C443        C  0.90014275  0.68319907  0.74134667     0.03000
C444        C  0.90592732  0.68558564  0.69672143    -0.03800
C445        C  0.93229929  0.72114038  0.68252085     0.00000
C446        C  0.95008004  0.75491482  0.71180884    -0.02600
C447        C  0.90933824  0.71530496  0.81577951     0.36700
C448        C  0.94038191  0.72342163  0.63744137     0.40300
C449        C  0.87471662  0.64663975  0.75745957     0.39400
C450        C  0.97716085  0.79098340  0.69654475     0.36400
C451        C  0.02701267  0.74899326  0.80796619     0.37000
C452        C  0.91595380  0.91254076  0.81578204     0.40300
N453        N  0.85480286  0.61729142  0.77064129    -0.37800
N454        N  0.90314829  0.71395397  0.85193551    -0.39400
N455        N  0.94717002  0.72566956  0.60148575    -0.37100
N456        N  0.99895048  0.81966753  0.68435501    -0.39500
N457        N  0.85463112  0.84489743  0.73957012    -0.39300
N458        N  0.89478667  0.94637724  0.81524055    -0.36900
N459        N  0.09756084  0.82539355  0.87224052    -0.38000
N460        N  0.05039394  0.71646489  0.80491661    -0.39600
C461        C  0.00821538  0.75973517  0.29351982    -0.04600
C462        C  0.98764984  0.71813791  0.30044740     0.09600
C463        C  0.95087831  0.70354580  0.27260093    -0.01900
C464        C  0.93975667  0.72640129  0.23505026    -0.00200
C465        C  0.96546544  0.76463091  0.22456699    -0.03800
C466        C  0.99635679  0.78329403  0.25635637     0.03200
C467        C  0.01008699  0.68631962  0.33184367     0.10100
C468        C  0.92668377  0.66292384  0.28121404     0.35900
C469        C  0.01568208  0.82697425  0.25139725     0.39400
C470        C  0.00085757  0.69012580  0.37596500    -0.04200
C471        C  0.02746278  0.66380832  0.40506039     0.03000
C472        C  0.06263801  0.63224657  0.39044430    -0.03800
C473        C  0.06987266  0.62693411  0.34577564     0.00000
C474        C  0.04314250  0.65298985  0.31691028    -0.02600
C475        C  0.96424581  0.72133480  0.39153873     0.36700
C476        C  0.10887958  0.59899763  0.32936670     0.40300
C477        C  0.02147612  0.67172004  0.45053935     0.39400
C478        C  0.05095058  0.64675102  0.27143211     0.36400
C479        C  0.04368748  0.77703488  0.32353003     0.37000
C480        C  0.90402753  0.70792540  0.20598199     0.40300
N481        N  0.01747607  0.67802750  0.48695084    -0.37800
N482        N  0.93471548  0.74578072  0.40436217    -0.39400
N483        N  0.14044258  0.57803146  0.31531874    -0.37100
N484        N  0.05655664  0.64183426  0.23510191    -0.39500
N485        N  0.90745581  0.63047445  0.28807160    -0.39300
N486        N  0.87542965  0.69181661  0.18366713    -0.36900
N487        N  0.03038599  0.86258549  0.24952177    -0.38000
N488        N  0.07205821  0.79080751  0.34749447    -0.39600
C489        C  0.11074335  0.17357110  0.43274621    -0.04600
C490        C  0.09355079  0.18163124  0.39110334     0.09600
C491        C  0.09556199  0.22598914  0.37743228    -0.01900
C492        C  0.11667326  0.26077709  0.40363137    -0.00200
C493        C  0.13246885  0.25332638  0.44642285    -0.03800
C494        C  0.12743831  0.20918138  0.46062741     0.03200
C495        C  0.06950555  0.14460127  0.36347964     0.10100
C496        C  0.07451019  0.23649948  0.33647387     0.35900
C497        C  0.13635804  0.19953026  0.50468339     0.39400
C498        C  0.02917808  0.12405659  0.37841394    -0.04200
C499        C  0.00681669  0.08940066  0.35368772     0.03000
C500        C  0.01838283  0.07997107  0.31028815    -0.03800
C501        C  0.05840446  0.10056453  0.29487547     0.00000
C502        C  0.08538713  0.13053458  0.32207170    -0.02600
C503        C  0.00811528  0.14075887  0.41809237     0.36700
C504        C  0.07027485  0.09317185  0.25042061     0.40300
C505        C  0.97012043  0.06473371  0.37278070     0.39400
C506        C  0.12887386  0.14763321  0.30691210     0.36400
C507        C  0.11024767  0.12829098  0.44773453     0.37000
C508        C  0.12242966  0.30374012  0.38508848     0.40300
N509        N  0.94095288  0.04518185  0.38821664    -0.37800
N510        N  0.99112393  0.15422838  0.44958119    -0.39400
N511        N  0.07964856  0.08789620  0.21482489    -0.37100
N512        N  0.16360667  0.16115236  0.29469740    -0.39500
N513        N  0.05775150  0.24509424  0.30387435    -0.39300
N514        N  0.12669055  0.33776248  0.36969167    -0.36900
N515        N  0.14148942  0.18860176  0.53928793    -0.38000
N516        N  0.10914794  0.09251219  0.46022647    -0.39600
C517        C  0.96103790  0.19890315  0.86619407    -0.04600
C518        C  0.99759147  0.21885795  0.84490670     0.09600
C519        C  0.04378184  0.21656022  0.86228796    -0.01900
C520        C  0.05257244  0.19910513  0.90277129    -0.00200
C521        C  0.01578991  0.18009760  0.92518667    -0.03800
C522        C  0.96968108  0.18105526  0.90662432     0.03200
C523        C  0.98577330  0.25108382  0.81047148     0.10100
C524        C  0.08171183  0.23624493  0.84014485     0.35900
C525        C  0.92981796  0.17156766  0.93228748     0.39400
C526        C  0.97845718  0.29735808  0.82182735    -0.04200
C527        C  0.96270926  0.32772670  0.79103118     0.03000
C528        C  0.95431081  0.31214006  0.74807313    -0.03800
C529        C  0.96885947  0.26726513  0.73592349     0.00000
C530        C  0.98244509  0.23642979  0.76710724    -0.02600
C531        C  0.98606010  0.31349641  0.86582609     0.36700
C532        C  0.97112476  0.25333339  0.69107015     0.40300
C533        C  0.95470139  0.37468143  0.80432075     0.39400
C534        C  0.99145951  0.18937077  0.75482616     0.36400
C535        C  0.91369921  0.19951522  0.84767712     0.37000
C536        C  0.09645949  0.21065326  0.92457440     0.40300
N537        N  0.94879632  0.41217208  0.81522221    -0.37800
N538        N  0.99250594  0.32608059  0.90092695    -0.39400
N539        N  0.97372763  0.24272916  0.65519614    -0.37100
N540        N  0.99812588  0.15166921  0.74515436    -0.39500
N541        N  0.11209758  0.25175072  0.82252822    -0.39300
N542        N  0.13088934  0.22315708  0.94109347    -0.36900
N543        N  0.89790545  0.16623850  0.95347250    -0.38000
N544        N  0.87600838  0.19961841  0.83270051    -0.39600
C545        C  0.32493578  0.20035116  0.64881369    -0.04600
C546        C  0.29609119  0.18157109  0.61563124     0.09600
C547        C  0.28853740  0.13477549  0.61369604    -0.01900
C548        C  0.31005341  0.10697854  0.64426591    -0.00200
C549        C  0.33790209  0.12582194  0.67804559    -0.03800
C550        C  0.34635326  0.17253759  0.67936386     0.03200
C551        C  0.27421478  0.21055700  0.58206543     0.10100
C552        C  0.25793527  0.11532520  0.58041529     0.35900
C553        C  0.37899568  0.19153326  0.71111729     0.39400
C554        C  0.29572979  0.21304159  0.54235201    -0.04200
C555        C  0.27218367  0.23441712  0.50855507     0.03000
C556        C  0.22758969  0.25607169  0.51477471    -0.03800
C557        C  0.20940357  0.25922733  0.55662298     0.00000
C558        C  0.23178414  0.23529361  0.58959662    -0.02600
C559        C  0.34416871  0.19792501  0.53760695     0.36700
C560        C  0.16732134  0.28655256  0.56598098     0.40300
C561        C  0.29526562  0.23610919  0.46799594     0.39400
C562        C  0.21185585  0.23686922  0.63169143     0.36400
C563        C  0.33180814  0.24846413  0.65182125     0.37000
C564        C  0.30652809  0.05867615  0.63887986     0.40300
N565        N  0.31430329  0.23812513  0.43606071    -0.37800
N566        N  0.38360125  0.18829639  0.53368123    -0.39400
N567        N  0.13337451  0.30773734  0.57361321    -0.37100
N568        N  0.19641676  0.23828582  0.66549292    -0.39500
N569        N  0.23312000  0.10001558  0.55404482    -0.39300
N570        N  0.30430968  0.02010064  0.63290845    -0.36900
N571        N  0.40582468  0.20649907  0.73593505    -0.38000
N572        N  0.33664726  0.28696478  0.65422088    -0.39600
C573        C  0.17603958  0.01353244  0.85725891    -0.04600
C574        C  0.16851415  0.05175706  0.83270237     0.09600
C575        C  0.12220729  0.07081621  0.82995355    -0.01900
C576        C  0.08404696  0.04872917  0.84699920    -0.00200
C577        C  0.09071717  0.00484563  0.86118775    -0.03800
C578        C  0.13719596  0.98926142  0.87010710     0.03200
C579        C  0.20824746  0.06796882  0.80651914     0.10100
C580        C  0.11281834  0.11053211  0.80625692     0.35900
C581        C  0.14522924  0.94538506  0.88703897     0.39400
C582        C  0.22898360  0.03841706  0.77486192    -0.04200
C583        C  0.27170174  0.04914820  0.75607009     0.03000
C584        C  0.29072238  0.09232859  0.76362840    -0.03800
C585        C  0.26742288  0.12360890  0.79203926     0.00000
C586        C  0.22743733  0.11104999  0.81444138    -0.02600
C587        C  0.20672683  0.99637600  0.76207621     0.36700
C588        C  0.28657217  0.16791121  0.80018172     0.40300
C589        C  0.29938403  0.01353946  0.73418987     0.39400
C590        C  0.20743694  0.14182074  0.84694145     0.36400
C591        C  0.22369575  0.99728417  0.86669803     0.37000
C592        C  0.03651256  0.06799606  0.84482509     0.40300
N593        N  0.32225745  0.98479521  0.71815796    -0.37800
N594        N  0.18855766  0.96315609  0.75156627    -0.39400
N595        N  0.30195700  0.20326656  0.80652123    -0.37100
N596        N  0.19119458  0.16652844  0.87267129    -0.39500
N597        N  0.10515724  0.14219754  0.78722969    -0.39300
N598        N  0.99841532  0.08305128  0.84358739    -0.36900
N599        N  0.15262852  0.91021113  0.90000685    -0.38000
N600        N  0.26154965  0.98409471  0.87458875    -0.39600
C601        C  0.26857705  0.06385017  0.25045303    -0.04600
C602        C  0.26799548  0.03782934  0.28670922     0.09600
C603        C  0.23570771  0.00262705  0.28719406    -0.01900
C604        C  0.21019129  0.98938027  0.24954878    -0.00200
C605        C  0.21984401  0.00870536  0.21089742    -0.03800
C606        C  0.24340411  0.04984134  0.21297848     0.03200
C607        C  0.30261071  0.04657574  0.32305139     0.10100
C608        C  0.23047136  0.97867413  0.32558003     0.35900
C609        C  0.24539949  0.07490786  0.17488299     0.39400
C610        C  0.28799633  0.06883022  0.36155613    -0.04200
C611        C  0.32178295  0.08164489  0.39333043     0.03000
C612        C  0.37037745  0.07301223  0.38660320    -0.03800
C613        C  0.38465444  0.04766563  0.34989282     0.00000
C614        C  0.35096681  0.03429057  0.31819663    -0.02600
C615        C  0.23847962  0.08027762  0.36779061     0.36700
C616        C  0.43425772  0.03638817  0.34456208     0.40300
C617        C  0.30690980  0.10634976  0.43196537     0.39400
C618        C  0.36624381  0.00863776  0.28018696     0.36400
C619        C  0.29720832  0.10334451  0.25074165     0.37000
C620        C  0.17432387  0.95600902  0.25042521     0.40300
N621        N  0.29475962  0.12595166  0.46278931    -0.37800
N622        N  0.19895388  0.08916200  0.37305141    -0.39400
N623        N  0.47383382  0.02704503  0.34024754    -0.37100
N624        N  0.37872447  0.98809141  0.24997427    -0.39500
N625        N  0.22612740  0.95972442  0.35632849    -0.39300
N626        N  0.14458946  0.93041326  0.25179374    -0.36900
N627        N  0.24647202  0.09476861  0.14434055    -0.38000
N628        N  0.32007521  0.13483015  0.25046983    -0.39600
C629        C  0.71208101  0.77605265  0.52326294    -0.04600
C630        C  0.75059219  0.79889636  0.54263415     0.09600
C631        C  0.75955085  0.84300408  0.53156343    -0.01900
C632        C  0.73126410  0.86348853  0.50000722    -0.00200
C633        C  0.69511503  0.83926913  0.47820077    -0.03800
C634        C  0.68509068  0.79574978  0.49067543     0.03200
C635        C  0.78278775  0.77464381  0.57269335     0.10100
C636        C  0.79851443  0.86684651  0.55204146     0.35900
C637        C  0.64757395  0.77063868  0.46924132     0.39400
C638        C  0.81204138  0.73884802  0.55639888    -0.04200
C639        C  0.83213546  0.70762612  0.58406023     0.03000
C640        C  0.82539071  0.71359385  0.62841262    -0.03800
C641        C  0.80221636  0.75288758  0.64505967     0.00000
C642        C  0.77971752  0.78300371  0.61724591    -0.02600
C643        C  0.81906983  0.73277620  0.51083313     0.36700
C644        C  0.80032120  0.76039689  0.69078180     0.40300
C645        C  0.85688838  0.66766598  0.56661321     0.39400
C646        C  0.75108521  0.82081991  0.63391213     0.36400
C647        C  0.70071217  0.73179177  0.53653601     0.37000
C648        C  0.73893837  0.90972965  0.49097049     0.40300
N649        N  0.87651873  0.63571040  0.55273696    -0.37800
N650        N  0.82473997  0.72809776  0.47450521    -0.39400
N651        N  0.79988333  0.76458539  0.72755230    -0.37100
N652        N  0.72786979  0.85118041  0.64638693    -0.39500
N653        N  0.82955898  0.88583583  0.56853482    -0.39300
N654        N  0.74600515  0.94696280  0.48530180    -0.36900
N655        N  0.61745840  0.75058224  0.45242513    -0.38000
N656        N  0.69176121  0.69654138  0.54723286    -0.39600
C657        C  0.79291688  0.92273349  0.36910701    -0.04600
C658        C  0.82570420  0.88837213  0.35583008     0.09600
C659        C  0.81593958  0.84304255  0.36217909    -0.01900
C660        C  0.77350363  0.83221047  0.38166134    -0.00200
C661        C  0.73942507  0.86636119  0.39214295    -0.03800
C662        C  0.74933882  0.91169008  0.38561129     0.03200
C663        C  0.86480120  0.90049906  0.32773244     0.10100
C664        C  0.84719521  0.80763995  0.34470659     0.35900
C665        C  0.71318722  0.94680983  0.39279782     0.39400
C666        C  0.90963601  0.91198954  0.34474391    -0.04200
C667        C  0.93978502  0.93776924  0.32114114     0.03000
C668        C  0.92341627  0.95496504  0.28226507    -0.03800
C669        C  0.88188349  0.93741834  0.26279969     0.00000
C670        C  0.85316080  0.90960035  0.28521662    -0.02600
C671        C  0.92289867  0.90087333  0.38775782     0.36700
C672        C  0.86571672  0.95110654  0.22138833     0.40300
C673        C  0.98574954  0.94990813  0.33850008     0.39400
C674        C  0.80857744  0.89468777  0.26649285     0.36400
C675        C  0.80224858  0.96938661  0.36192514     0.37000
C676        C  0.76329394  0.78578994  0.38828668     0.40300
N677        N  0.02269864  0.95924771  0.35205374    -0.37800
N678        N  0.93372276  0.89237469  0.42218631    -0.39400
N679        N  0.85048925  0.96070817  0.18856991    -0.37100
N680        N  0.77298921  0.88273652  0.25179556    -0.39500
N681        N  0.87182583  0.77965621  0.32973589    -0.39300
N682        N  0.75482452  0.74882252  0.39379106    -0.36900
N683        N  0.68430056  0.97471799  0.39833003    -0.38000
N684        N  0.80962519  0.00645254  0.35577698    -0.39600
C685        C  0.70303076  0.85112951  0.80239992    -0.04600
C686        C  0.68846880  0.88463158  0.83303046     0.09600
C687        C  0.64208274  0.90344233  0.83033884    -0.01900
C688        C  0.60978877  0.88697723  0.79847146    -0.00200
C689        C  0.62442883  0.85305534  0.76813810    -0.03800
C690        C  0.67193154  0.83731336  0.76892582     0.03200
C691        C  0.72259736  0.90127387  0.86722355     0.10100
C692        C  0.62753639  0.93911987  0.86095166     0.35900
C693        C  0.68758687  0.80558557  0.73535581     0.39400
C694        C  0.75262567  0.93673921  0.85961433    -0.04200
C695        C  0.78026056  0.95632791  0.89334145     0.03000
C696        C  0.77498570  0.94305991  0.93536483    -0.03800
C697        C  0.75104317  0.90312187  0.94139355     0.00000
C698        C  0.72462648  0.88230373  0.90743703    -0.02600
C699        C  0.75239135  0.95509996  0.81784279     0.36700
C700        C  0.74991832  0.88645564  0.98378275     0.40300
C701        C  0.81047012  0.99324397  0.88573436     0.39400
C702        C  0.69754191  0.84299490  0.91441798     0.36400
C703        C  0.74895521  0.82908328  0.80716459     0.37000
C704        C  0.56190660  0.90509906  0.79688210     0.40300
N705        N  0.83513486  0.02224189  0.87937608    -0.37800
N706        N  0.75164731  0.96981237  0.78452233    -0.39400
N707        N  0.74928633  0.87325217  0.01768802    -0.37100
N708        N  0.67605656  0.81151233  0.91997285    -0.39500
N709        N  0.61625021  0.96766561  0.88545071    -0.39300
N710        N  0.52395515  0.92054748  0.79623749    -0.36900
N711        N  0.69753720  0.77993556  0.70781496    -0.38000
N712        N  0.78529679  0.81126333  0.81245257    -0.39600
C713        C  0.38815923  0.58369679  0.63042311    -0.04600
C714        C  0.33836440  0.58803207  0.63192300     0.09600
C715        C  0.31683423  0.63138497  0.63079716    -0.01900
C716        C  0.34473380  0.67004546  0.63218038    -0.00200
C717        C  0.39447360  0.66585153  0.62973954    -0.03800
C718        C  0.41592452  0.62225144  0.62807551     0.03200
C719        C  0.30888249  0.54717224  0.63650250     0.10100
C720        C  0.26580663  0.63613877  0.62779867     0.35900
C721        C  0.46669353  0.61685440  0.62502336     0.39400
C722        C  0.28551384  0.54117350  0.67503832    -0.04200
C723        C  0.26022263  0.50168943  0.68018169     0.03000
C724        C  0.26010678  0.46680986  0.64799315    -0.03800
C725        C  0.28155917  0.47345308  0.60894116     0.00000
C726        C  0.30559354  0.51347267  0.60306041    -0.02600
C727        C  0.28966426  0.57445181  0.71032593     0.36700
C728        C  0.28071646  0.43790697  0.57554553     0.40300
C729        C  0.23359927  0.49705677  0.71831085     0.39400
C730        C  0.32924967  0.51887088  0.56340527     0.36400
C731        C  0.41077685  0.53938408  0.63193983     0.37000
C732        C  0.32218191  0.71407933  0.63921830     0.40300
N733        N  0.21166847  0.49409855  0.74853866    -0.37800
N734        N  0.29327047  0.60088677  0.73855549    -0.39400
N735        N  0.28019852  0.40937554  0.54898695    -0.37100
N736        N  0.34910316  0.52287647  0.53218516    -0.39500
N737        N  0.22511539  0.63975718  0.62483735    -0.39300
N738        N  0.30387572  0.74899986  0.64566481    -0.36900
N739        N  0.50715876  0.61173453  0.62235806    -0.38000
N740        N  0.42807483  0.50370631  0.63281449    -0.39600
C741        C  0.71574919  0.41878929  0.54348802    -0.04600
C742        C  0.70645757  0.38438272  0.51192443     0.09600
C743        C  0.72706322  0.38611100  0.47158426    -0.01900
C744        C  0.75501754  0.42271676  0.46249033    -0.00200
C745        C  0.76059386  0.45933477  0.49259056    -0.03800
C746        C  0.74219353  0.45633502  0.53373230     0.03200
C747        C  0.67597959  0.34561870  0.52111764     0.10100
C748        C  0.71934397  0.35015257  0.43926075     0.35900
C749        C  0.74913514  0.49260775  0.56565262     0.39400
C750        C  0.62627371  0.35098968  0.52104270    -0.04200
C751        C  0.59761233  0.31328278  0.52464201     0.03000
C752        C  0.61839844  0.26982459  0.52860577    -0.03800
C753        C  0.66821708  0.26474601  0.52884951     0.00000
C754        C  0.69674115  0.30256953  0.52638708    -0.02600
C755        C  0.60470039  0.39517646  0.51552447     0.36700
C756        C  0.69037987  0.22020667  0.52700186     0.40300
C757        C  0.54673131  0.31893469  0.52127271     0.39400
C758        C  0.74778619  0.29715652  0.52759383     0.36400
C759        C  0.69814765  0.41531283  0.58604569     0.37000
C760        C  0.78009604  0.42137153  0.42291483     0.40300
N761        N  0.50620553  0.32402097  0.51797077    -0.37800
N762        N  0.58780709  0.43057060  0.51120744    -0.39400
N763        N  0.70877353  0.18495058  0.52443216    -0.37100
N764        N  0.78853998  0.29339409  0.52840099    -0.39500
N765        N  0.71334303  0.32134628  0.41360379    -0.39300
N766        N  0.80060865  0.41841799  0.39146987    -0.36900
N767        N  0.75447815  0.52159424  0.59123887    -0.38000
N768        N  0.68428504  0.41216574  0.62003690    -0.39600
C769        C  0.41012927  0.20463214  0.30593629    -0.04600
C770        C  0.45885039  0.20631391  0.29854831     0.09600
C771        C  0.49088237  0.17742088  0.31939026    -0.01900
C772        C  0.47543535  0.15243443  0.35245210    -0.00200
C773        C  0.42764387  0.15586709  0.36427098    -0.03800
C774        C  0.39441297  0.17966127  0.33935992     0.03200
C775        C  0.47830349  0.24051228  0.27175140     0.10100
C776        C  0.54023841  0.17504229  0.30784869     0.35900
C777        C  0.34462879  0.17979221  0.34868790     0.39400
C778        C  0.50336014  0.27637755  0.29186531    -0.04200
C779        C  0.53585650  0.29921780  0.26850580     0.03000
C780        C  0.54200499  0.28738311  0.22480055    -0.03800
C781        C  0.50954195  0.25820880  0.20350388     0.00000
C782        C  0.48050593  0.23212567  0.22743429    -0.02600
C783        C  0.50033689  0.28539070  0.33764153     0.36700
C784        C  0.50714543  0.25329358  0.15748131     0.40300
C785        C  0.56549173  0.33267099  0.28983294     0.39400
C786        C  0.45840695  0.19260399  0.20779573     0.36400
C787        C  0.37651114  0.22834719  0.27927823     0.37000
C788        C  0.50949444  0.12536903  0.37590399     0.40300
N789        N  0.58975012  0.35923604  0.30627795    -0.37800
N790        N  0.49800234  0.29176897  0.37420511    -0.39400
N791        N  0.50406173  0.24982867  0.12065882    -0.37100
N792        N  0.44120796  0.16046277  0.19293475    -0.39500
N793        N  0.57948055  0.17334760  0.29843359    -0.39300
N794        N  0.53706166  0.10390804  0.39421756    -0.36900
N795        N  0.30458105  0.18017999  0.35504603    -0.38000
N796        N  0.34934745  0.24634447  0.25752408    -0.39600
C797        C  0.67771521  0.19595004  0.07576440    -0.04600
C798        C  0.72386404  0.20896463  0.06735977     0.09600
C799        C  0.73673580  0.25351367  0.07889299    -0.01900
C800        C  0.70516146  0.28301871  0.10209496    -0.00200
C801        C  0.66259730  0.26695144  0.11726355    -0.03800
C802        C  0.64879500  0.22316737  0.10318971     0.03200
C803        C  0.75930084  0.17326218  0.05176754     0.10100
C804        C  0.78338449  0.26798597  0.06929858     0.35900
C805        C  0.60982768  0.20220643  0.12255063     0.39400
C806        C  0.77230389  0.16911900  0.00865325    -0.04200
C807        C  0.79172369  0.12777626  0.99152764     0.03000
C808        C  0.79614312  0.09001052  0.01691171    -0.03800
C809        C  0.79122203  0.09679986  0.06129971     0.00000
C810        C  0.77304217  0.13838951  0.07877890    -0.02600
C811        C  0.76171306  0.20567707  0.98105830     0.36700
C812        C  0.79688727  0.05851231  0.08768304     0.40300
C813        C  0.80039911  0.12199496  0.94626903     0.39400
C814        C  0.76377084  0.14367130  0.12396994     0.36400
C815        C  0.66115252  0.15277227  0.05876857     0.37000
C816        C  0.71788933  0.32899502  0.11322745     0.40300
N817        N  0.80739001  0.11794870  0.91012434    -0.37800
N818        N  0.75349008  0.23479625  0.95887788    -0.39400
N819        N  0.80066493  0.02748606  0.10820656    -0.37100
N820        N  0.75614450  0.14779833  0.15999607    -0.39500
N821        N  0.82074980  0.27937696  0.06166227    -0.39300
N822        N  0.72776835  0.36586871  0.12180312    -0.36900
N823        N  0.58066024  0.18289328  0.13820584    -0.38000
N824        N  0.64710174  0.11869779  0.04519712    -0.39600
C825        C  0.17274296  0.21739975  0.09348636    -0.04600
C826        C  0.20769743  0.21988042  0.06248352     0.09600
C827        C  0.20410089  0.19243727  0.02450399    -0.01900
C828        C  0.16281785  0.16767444  0.01539410    -0.00200
C829        C  0.12349939  0.17416579  0.04218414    -0.03800
C830        C  0.13105704  0.19415067  0.08351023     0.03200
C831        C  0.24738326  0.25171977  0.07066162     0.10100
C832        C  0.24155201  0.19176209  0.99392686     0.35900
C833        C  0.09483473  0.19249132  0.11516752     0.39400
C834        C  0.29120723  0.23619040  0.08702176    -0.04200
C835        C  0.32225060  0.26705992  0.10749414     0.03000
C836        C  0.30781671  0.31245718  0.11521768    -0.03800
C837        C  0.26885957  0.32905842  0.09144051     0.00000
C838        C  0.23864739  0.29861670  0.06891606    -0.02600
C839        C  0.30226880  0.18833480  0.08671139     0.36700
C840        C  0.25656283  0.37668383  0.09478706     0.40300
C841        C  0.36562748  0.25110126  0.12703074     0.39400
C842        C  0.19675597  0.31513850  0.04673298     0.36400
C843        C  0.17832010  0.24053652  0.13504154     0.37000
C844        C  0.16063640  0.13664271  0.97826533     0.40300
N845        N  0.40031956  0.23824608  0.14267447    -0.37800
N846        N  0.31125161  0.15015680  0.08663401    -0.39400
N847        N  0.24653830  0.41469949  0.09724338    -0.37100
N848        N  0.16344097  0.32824201  0.02875915    -0.39500
N849        N  0.27153127  0.19153586  0.96957986    -0.39300
N850        N  0.15924457  0.11150885  0.94883326    -0.36900
N851        N  0.06617524  0.19126217  0.14062790    -0.38000
N852        N  0.18158702  0.25869436  0.16844423    -0.39600
C853        C  0.31274901  0.41653906  0.32794603    -0.04600
C854        C  0.28410763  0.45497038  0.32025343     0.09600
C855        C  0.28500647  0.47285705  0.27944247    -0.01900
C856        C  0.30816938  0.44873241  0.24526268    -0.00200
C857        C  0.33256360  0.40757349  0.25206363    -0.03800
C858        C  0.33984191  0.39550895  0.29480992     0.03200
C859        C  0.25146810  0.47571122  0.35398477     0.10100
C860        C  0.25986985  0.51496663  0.27216469     0.35900
C861        C  0.37120701  0.35765645  0.30361565     0.39400
C862        C  0.26930270  0.49994713  0.39040412    -0.04200
C863        C  0.23866153  0.52574087  0.41766618     0.03000
C864        C  0.18946545  0.52837569  0.40840966    -0.03800
C865        C  0.17108288  0.49813848  0.37607479     0.00000
C866        C  0.20203417  0.47225162  0.34893017    -0.02600
C867        C  0.31930181  0.49865083  0.39981933     0.36700
C868        C  0.12061557  0.49507249  0.36876390     0.40300
C869        C  0.25815646  0.55122342  0.45435707     0.39400
C870        C  0.18311041  0.44232405  0.31521010     0.36400
C871        C  0.31061346  0.39583761  0.36850863     0.37000
C872        C  0.30397556  0.46474100  0.20269443     0.40300
N873        N  0.27357308  0.57222266  0.48321788    -0.37800
N874        N  0.35908399  0.49651732  0.40829573    -0.39400
N875        N  0.08033351  0.49252782  0.36269793    -0.37100
N876        N  0.16824588  0.41820496  0.28836578    -0.39500
N877        N  0.23995299  0.54871348  0.26657549    -0.39300
N878        N  0.30067967  0.47829740  0.16894494    -0.36900
N879        N  0.39673839  0.32790997  0.31098362    -0.38000
N880        N  0.30820586  0.37902584  0.40066899    -0.39600
C881        C  0.50473706  0.65035908  0.87429316    -0.04600
C882        C  0.52746992  0.68998298  0.88885219     0.09600
C883        C  0.52184376  0.70722307  0.93092612    -0.01900
C884        C  0.48831169  0.68882636  0.95664637    -0.00200
C885        C  0.46141245  0.65202080  0.94066125    -0.03800
C886        C  0.47086006  0.63197699  0.89977773     0.03200
C887        C  0.54616140  0.71960075  0.85714101     0.10100
C888        C  0.54608229  0.74775429  0.94544876     0.35900
C889        C  0.44141373  0.59645946  0.88160973     0.39400
C890        C  0.51634449  0.75387667  0.84117574    -0.04200
C891        C  0.53008279  0.77696301  0.80608536     0.03000
C892        C  0.57392441  0.76620624  0.78730563    -0.03800
C893        C  0.60517784  0.73426926  0.80525716     0.00000
C894        C  0.59169503  0.71222582  0.84118200    -0.02600
C895        C  0.47149457  0.76541303  0.86089965     0.36700
C896        C  0.65035263  0.72247163  0.78641538     0.40300
C897        C  0.49741767  0.80916718  0.78726969     0.39400
C898        C  0.62529665  0.68371328  0.86293644     0.36400
C899        C  0.51264773  0.63129844  0.83144005     0.37000
C900        C  0.47565154  0.71368324  0.99577680     0.40300
N901        N  0.47110736  0.83447545  0.77211840    -0.37800
N902        N  0.43614510  0.77522658  0.87709490    -0.39400
N903        N  0.68662948  0.71154992  0.77252471    -0.37100
N904        N  0.65324401  0.66232680  0.88068765    -0.39500
N905        N  0.56520640  0.78023892  0.95667505    -0.39300
N906        N  0.46607382  0.73584368  0.02586791    -0.36900
N907        N  0.41779907  0.56843082  0.86672967    -0.38000
N908        N  0.51894172  0.61587639  0.79735331    -0.39600
C909        C  0.24654315  0.79050627  0.14149164    -0.04600
C910        C  0.25801655  0.77851078  0.09886441     0.09600
C911        C  0.24583602  0.80883143  0.06706655    -0.01900
C912        C  0.22832546  0.85281834  0.07854128    -0.00200
C913        C  0.22157769  0.86662712  0.12178434    -0.03800
C914        C  0.22783240  0.83412004  0.15284579     0.03200
C915        C  0.28680408  0.73606341  0.08791586     0.10100
C916        C  0.25419645  0.79573656  0.02272272     0.35900
C917        C  0.22017156  0.84680009  0.19733679     0.39400
C918        C  0.26512306  0.69667303  0.07119505    -0.04200
C919        C  0.29320887  0.65959530  0.05520444     0.03000
C920        C  0.34277085  0.66289990  0.05302934    -0.03800
C921        C  0.36389580  0.69729459  0.07883056     0.00000
C922        C  0.33644359  0.73515270  0.09399249    -0.02600
C923        C  0.21414303  0.69555063  0.06797910     0.36700
C924        C  0.41304148  0.69276151  0.09147528     0.40300
C925        C  0.27133403  0.61915838  0.03759194     0.39400
C926        C  0.35952205  0.77421806  0.11336584     0.36400
C927        C  0.25690404  0.75875620  0.17403969     0.37000
C928        C  0.22260513  0.88579925  0.04644496     0.40300
N929        N  0.25395060  0.58656175  0.02406452    -0.37800
N930        N  0.17338427  0.69513404  0.06527709    -0.39400
N931        N  0.45190423  0.68916042  0.10321973    -0.37100
N932        N  0.37788041  0.80568615  0.12833974    -0.39500
N933        N  0.26059642  0.78522641  0.98728243    -0.39300
N934        N  0.21877217  0.91259981  0.02122357    -0.36900
N935        N  0.21462095  0.85576561  0.23317837    -0.38000
N936        N  0.26544910  0.73332228  0.19986713    -0.39600
C937        C  0.75763632  0.64730652  0.08079978    -0.04600
C938        C  0.74673592  0.69361076  0.07755664     0.09600
C939        C  0.70050479  0.70686298  0.06489933    -0.01900
C940        C  0.66877520  0.67389182  0.04875782    -0.00200
C941        C  0.68415869  0.62847687  0.04255779    -0.03800
C942        C  0.72576857  0.61483549  0.06434205     0.03200
C943        C  0.78547090  0.72685396  0.08457532     0.10100
C944        C  0.68654564  0.75411189  0.06623497     0.35900
C945        C  0.73826899  0.56753894  0.06602338     0.39400
C946        C  0.82049179  0.72891364  0.05354677    -0.04200
C947        C  0.86416739  0.74868958  0.06435515     0.03000
C948        C  0.87293965  0.76729717  0.10616587    -0.03800
C949        C  0.83461184  0.77235530  0.13439258     0.00000
C950        C  0.79166250  0.75077160  0.12419710    -0.02600
C951        C  0.81283793  0.70784312  0.01129035     0.36700
C952        C  0.84065544  0.79552108  0.17580728     0.40300
C953        C  0.90084198  0.74802483  0.03289445     0.39400
C954        C  0.75562083  0.74960983  0.15598146     0.36400
C955        C  0.80308560  0.63315746  0.09844098     0.37000
C956        C  0.62157420  0.68666243  0.03478337     0.40300
N957        N  0.92996043  0.74728255  0.00766982    -0.37800
N958        N  0.80712081  0.69110253  0.97751278    -0.39400
N959        N  0.84598547  0.81357241  0.20903931    -0.37100
N960        N  0.72708800  0.74844717  0.18155878    -0.39500
N961        N  0.67517574  0.79182536  0.06750515    -0.39300
N962        N  0.58345011  0.69659083  0.02441051    -0.36900
N963        N  0.74921744  0.53006730  0.06876528    -0.38000
N964        N  0.83949555  0.62203818  0.11232183    -0.39600
C965        C  0.70293881  0.48804045  0.84604364    -0.04600
C966        C  0.74297822  0.46378523  0.86141078     0.09600
C967        C  0.74832945  0.46041247  0.90612450    -0.01900
C968        C  0.71504941  0.48189585  0.93423955    -0.00200
C969        C  0.68187229  0.51402254  0.91936905    -0.03800
C970        C  0.67444335  0.51487324  0.87453648     0.03200
C971        C  0.77974449  0.44422175  0.83029280     0.10100
C972        C  0.79003283  0.43821899  0.92366154     0.35900
C973        C  0.64186573  0.54803493  0.85730974     0.39400
C974        C  0.80371788  0.47277710  0.80389810    -0.04200
C975        C  0.83282822  0.45471343  0.77051385     0.03000
C976        C  0.83989693  0.40768315  0.76362107    -0.03800
C977        C  0.82047890  0.37948755  0.79361258     0.00000
C978        C  0.78984846  0.39743220  0.82569530    -0.02600
C979        C  0.79822527  0.52114314  0.81135804     0.36700
C980        C  0.83240517  0.33165877  0.79256963     0.40300
C981        C  0.85511535  0.48491517  0.74324471     0.39400
C982        C  0.76930056  0.36717184  0.85421530     0.36400
C983        C  0.69346339  0.48860501  0.80049192     0.37000
C984        C  0.71462836  0.47052839  0.97826477     0.40300
N985        N  0.87281923  0.50986327  0.72218289    -0.37800
N986        N  0.79298837  0.55957821  0.81791046    -0.39400
N987        N  0.84142573  0.29346034  0.79221725    -0.37100
N988        N  0.75453768  0.34263884  0.87752046    -0.39500
N989        N  0.82360845  0.42062923  0.93734151    -0.39300
N990        N  0.71308087  0.45921113  0.01278262    -0.36900
N991        N  0.61672013  0.57481791  0.84291599    -0.38000
N992        N  0.68646436  0.48939583  0.76411443    -0.39600
C993        C  0.44137917  0.36425552  0.81647581    -0.04600
C994        C  0.42933679  0.40551484  0.79811311     0.09600
C995        C  0.45691228  0.44339376  0.80833681    -0.01900
C996        C  0.49738326  0.43928636  0.83501430    -0.00200
C997        C  0.51129269  0.39741164  0.85067651    -0.03800
C998        C  0.48169618  0.36064506  0.84341895     0.03200
C999        C  0.38764030  0.40858290  0.76803221     0.10100
C1000       C  0.44477444  0.48593056  0.78991361     0.35900
C1001       C  0.49267982  0.31941653  0.86432402     0.39400
C1002       C  0.34152113  0.40923673  0.78387470    -0.04200
C1003       C  0.30240962  0.40494237  0.75551972     0.03000
C1004       C  0.30896954  0.40224563  0.71091359    -0.03800
C1005       C  0.35505660  0.40260276  0.69509738     0.00000
C1006       C  0.39417228  0.40665096  0.72355818    -0.02600
C1007       C  0.33454456  0.41374667  0.82950750     0.36700
C1008       C  0.36280603  0.39378371  0.64995705     0.40300
C1009       C  0.25573144  0.40021915  0.77239617     0.39400
C1010       C  0.44133054  0.40778388  0.70703466     0.36400
C1011       C  0.41366860  0.32491246  0.80592540     0.37000
C1012       C  0.52508069  0.47803356  0.84658414     0.40300
N1013       N  0.21859609  0.39575524  0.78577518    -0.37800
N1014       N  0.32920521  0.41762723  0.86592661    -0.39400
N1015       N  0.36966369  0.38550312  0.61419675    -0.37100
N1016       N  0.47883102  0.40924133  0.69361491    -0.39500
N1017       N  0.43526428  0.51965084  0.77471746    -0.39300
N1018       N  0.54652316  0.50928244  0.85689676    -0.36900
N1019       N  0.50072274  0.28669608  0.88168720    -0.38000
N1020       N  0.39172520  0.29343231  0.79731739    -0.39600
C1021       C  0.58299290  0.27212394  0.76220681    -0.04600
C1022       C  0.57853189  0.29277867  0.72296989     0.09600
C1023       C  0.57991333  0.34019421  0.72230469    -0.01900
C1024       C  0.58351489  0.36679590  0.76084736    -0.00200
C1025       C  0.58852713  0.34593878  0.79993759    -0.03800
C1026       C  0.59052922  0.29846040  0.80019374     0.03200
C1027       C  0.57602282  0.26451402  0.68207740     0.10100
C1028       C  0.58000255  0.36132195  0.68182828     0.35900
C1029       C  0.60313022  0.27658356  0.83917008     0.39400
C1030       C  0.53381011  0.26310993  0.65738447    -0.04200
C1031       C  0.53380825  0.24200922  0.61609849     0.03000
C1032       C  0.57458191  0.21849626  0.60096759    -0.03800
C1033       C  0.61454803  0.21471232  0.62802740     0.00000
C1034       C  0.61627346  0.23954198  0.66753282    -0.02600
C1035       C  0.49031239  0.28234826  0.67484273     0.36700
C1036       C  0.65280481  0.18364154  0.61628061     0.40300
C1037       C  0.49237822  0.24560481  0.58855496     0.39400
C1038       C  0.65966913  0.23994585  0.69293983     0.36400
C1039       C  0.58070370  0.22361072  0.76337489     0.37000
C1040       C  0.58476143  0.41536033  0.76006838     0.40300
N1041       N  0.45938936  0.24905350  0.56646722    -0.37800
N1042       N  0.45530859  0.29669703  0.68900375    -0.39400
N1043       N  0.68319446  0.15788158  0.60850485    -0.37100
N1044       N  0.69415919  0.24038612  0.71339861    -0.39500
N1045       N  0.58039212  0.37802778  0.64947463    -0.39300
N1046       N  0.58575510  0.45411492  0.75917071    -0.36900
N1047       N  0.61434566  0.25940613  0.87011296    -0.38000
N1048       N  0.57889220  0.18490504  0.76428120    -0.39600
C1049       C  0.55782920  0.48977394  0.34254200    -0.04600
C1050       C  0.58903909  0.52577553  0.34599095     0.09600
C1051       C  0.57707615  0.56612072  0.32608967    -0.01900
C1052       C  0.53225642  0.57163885  0.30613554    -0.00200
C1053       C  0.49996751  0.53654313  0.30507155    -0.03800
C1054       C  0.51415763  0.49466588  0.32064555     0.03200
C1055       C  0.63306026  0.52211869  0.37286898     0.10100
C1056       C  0.61003857  0.60251769  0.32774899     0.35900
C1057       C  0.48156591  0.45810554  0.31762622     0.39400
C1058       C  0.67706844  0.51307018  0.35379813    -0.04200
C1059       C  0.71873240  0.51336555  0.37909405     0.03000
C1060       C  0.71619679  0.51989506  0.42391283    -0.03800
C1061       C  0.67209210  0.52699896  0.44312766     0.00000
C1062       C  0.63064451  0.52795186  0.41768295    -0.02600
C1063       C  0.67932500  0.50253056  0.30830190     0.36700
C1064       C  0.66930808  0.53686397  0.48875025     0.40300
C1065       C  0.76422379  0.50849521  0.35879178     0.39400
C1066       C  0.58547869  0.53499775  0.43789155     0.36400
C1067       C  0.56908788  0.44936191  0.36487614     0.37000
C1068       C  0.51899581  0.61343980  0.28706126     0.40300
N1069       N  0.80042103  0.50468933  0.34249693    -0.37800
N1070       N  0.68127543  0.49336285  0.27211509    -0.39400
N1071       N  0.66618355  0.54527873  0.52497244    -0.37100
N1072       N  0.54987569  0.54006422  0.45491845    -0.39500
N1073       N  0.63642564  0.63147407  0.32887348    -0.39300
N1074       N  0.50896567  0.64688148  0.27158629    -0.36900
N1075       N  0.45509621  0.42924264  0.31571331    -0.38000
N1076       N  0.57828237  0.41801202  0.38396043    -0.39600
C1077       C  0.44122041  0.60282625  0.43668943    -0.04600
C1078       C  0.43327032  0.64965065  0.43542664     0.09600
C1079       C  0.42449883  0.66945572  0.39631373    -0.01900
C1080       C  0.42165968  0.64204170  0.35855519    -0.00200
C1081       C  0.42974556  0.59490079  0.35968154    -0.03800
C1082       C  0.44175492  0.57575482  0.39869979     0.03200
C1083       C  0.43456427  0.67776908  0.47578776     0.10100
C1084       C  0.41688550  0.71783092  0.39525328     0.35900
C1085       C  0.45322966  0.52828691  0.40104683     0.39400
C1086       C  0.47783968  0.68310786  0.49821977    -0.04200
C1087       C  0.47818610  0.70291232  0.53974084     0.03000
C1088       C  0.43572010  0.71975227  0.55777632    -0.03800
C1089       C  0.39368661  0.71983199  0.53307594     0.00000
C1090       C  0.39241641  0.69651148  0.49299873    -0.02600
C1091       C  0.52158732  0.66656260  0.47907453     0.36700
C1092       C  0.35301595  0.74650131  0.54727033     0.40300
C1093       C  0.52202158  0.70517465  0.56433402     0.39400
C1094       C  0.34768900  0.69003962  0.47035403     0.36400
C1095       C  0.44667469  0.58228498  0.47747605     0.37000
C1096       C  0.40952464  0.66241544  0.31867330     0.40300
N1097       N  0.55715137  0.70706383  0.58378554    -0.37800
N1098       N  0.55626258  0.65320032  0.46358097    -0.39400
N1099       N  0.32049248  0.76898421  0.55668594    -0.37100
N1100       N  0.31218412  0.68437780  0.45218194    -0.39500
N1101       N  0.41041747  0.75636796  0.39468139    -0.39300
N1102       N  0.39957552  0.67871731  0.28698097    -0.36900
N1103       N  0.46261411  0.49080438  0.40597216    -0.38000
N1104       N  0.45077087  0.56595725  0.50996635    -0.39600
loop_ 
_geom_bond_atom_site_label_1 
_geom_bond_atom_site_label_2 
_geom_bond_distance 
_geom_bond_site_symmetry_2 
_ccdc_geom_bond_type 
N1            C5   1.353       .  A
N1            C2   1.355       .  A
N1         C1053   1.444       .  S
C2            C3   1.381       .  A
C2         C1081   1.478       .  S
C3            C4   1.369       .  A
C3            H6   1.082       .  S
C4            C5   1.380       .  A
C4            H7   1.081       .  S
C5           C71   1.458       .  S
N8           C12   1.357       .  A
N8            C9   1.357       .  A
N8          C997   1.444       .  S
C9           C10   1.377       .  A
C9         C1025   1.486       .  S
C10          C11   1.373       .  A
C10          H13   1.077       .  S
C11          C12   1.382       .  A
C11          H14   1.083       .  S
C12          C66   1.468       .  S
N15          C19   1.368       .  A
N15          C16   1.378       .  A
N15          C65   1.453   1_556  S
C16          C17   1.382       .  A
C16         C969   1.508       .  S
C17          C18   1.357       .  A
C17          H20   1.083       .  S
C18          C19   1.376       .  A
C18          H21   1.082       .  S
C19         C941   1.490   1_556  S
N22          C26   1.361   1_554  A
N22          C23   1.372       .  A
N22          C67   1.451       .  S
C23          C24   1.386   1_554  A
C23         C920   1.504       .  S
C24          C25   1.363       .  A
C24          H27   1.083       .  S
C25          C26   1.377       .  A
C25          H28   1.083       .  S
C26         C885   1.483       .  S
N29          C33   1.367       .  A
N29          C30   1.377       .  A
N29          C79   1.452       .  S
C30          C31   1.385       .  A
C30         C857   1.503       .  S
C31          C32   1.354       .  A
C31          H34   1.083       .  S
C32          C33   1.374       .  A
C32          H35   1.079       .  S
C33         C836   1.488       .  S
N36          C40   1.358       .  A
N36          C37   1.366       .  A
N36          C86   1.446       .  S
C37          C38   1.383       .  A
C37         C801   1.495       .  S
C38          C39   1.368       .  A
C38          H41   1.083       .  S
C39          C40   1.382       .  A
C39          H42   1.082       .  S
C40         C780   1.495       .  S
Zr43         O44   2.427   1_554  S
Zr43         O45   2.481   1_554  S
Zr43         O46   2.485       .  S
Zr43         O49   2.427   1_554  S
Zr43         O51   2.380       .  S
Zr43         O52   2.385       .  S
Zr43         O53   2.412       .  S
Zr43         O54   2.419       .  S
O44         H100   0.988       .  S
O44         H108   0.990       .  S
O45          C65   1.293   1_556  A
O46          C67   1.297       .  A
O47         Zr57   2.441   1_556  S
O47          C66   1.286       .  A
O48         Zr56   2.426       .  S
O48          C67   1.280       .  A
O49          C66   1.281       .  A
O50         Zr58   2.450       .  S
O50          C65   1.287       .  A
O51         Zr56   2.399       .  S
O51         Zr58   2.385       .  S
O52         Zr57   2.385       .  S
O52         Zr58   2.370       .  S
O52          H87   0.967       .  S
O53         Zr56   2.400       .  S
O53         Zr73   2.402       .  S
O53          H90   0.965       .  S
O54         Zr57   2.386       .  S
O54         Zr73   2.404       .  S
Zr55         O80   2.436       .  S
Zr55         O74   2.475       .  S
Zr55         O82   2.459       .  S
Zr55         O70   2.429       .  S
Zr55         O61   2.410       .  S
Zr55         O62   2.419       .  S
Zr55         O63   2.376       .  S
Zr55         O64   2.382       .  S
Zr56         O75   2.441       .  S
Zr56         O68   2.432       .  S
Zr56         O69   2.417       .  S
Zr56         O62   2.393       .  S
Zr56         O63   2.394       .  S
Zr57         O59   2.435       .  S
Zr57         O81   2.441       .  S
Zr57         O83   2.424       .  S
Zr57         O61   2.401       .  S
Zr57         O64   2.404       .  S
Zr58         O84   2.432       .  S
Zr58         O85   2.437       .  S
Zr58         O60   2.439       .  S
Zr58         O61   2.407       .  S
Zr58         O62   2.400       .  S
O59          H96   0.990       .  S
O60          H91   0.990       .  S
O60         H105   0.990       .  S
O62          H88   0.965       .  S
O63         Zr73   2.371       .  S
O64         Zr73   2.383       .  S
O64          H89   0.967       .  S
O68         H104   0.990       .  S
O69          C71   1.281       .  A
O70          C71   1.281       .  A
O72         Zr73   2.437   1_556  S
O72         H101   0.990       .  S
Zr73         O76   2.435       .  S
Zr73         O77   2.442       .  S
Zr73         O78   2.440       .  S
O74          C79   1.290       .  A
O75          H92   0.990       .  S
O75         H107   0.990       .  S
O76          H93   0.989       .  S
O77          H97   0.990       .  S
O77         H106   0.989       .  S
O78          C79   1.285       .  A
O80          H99   0.990       .  S
O80         H103   0.990       .  S
O81          H95   0.990       .  S
O81         H102   0.990       .  S
O82          C86   1.291       .  A
O83          C86   1.281       .  A
O84          H94   0.989       .  S
O85          H98   0.990       .  S
N109        C113   1.361       .  A
N109        C110   1.363       .  A
N109       C1032   1.442       .  S
C110        C111   1.379       .  A
C110        C752   1.499       .  S
C111        C112   1.376       .  A
C111        H114   1.082       .  S
C112        C113   1.382       .  A
C112        H115   1.080       .  S
C113        C173   1.483       .  S
N116        C120   1.355       .  A
N116        C117   1.361       .  A
N116       C1088   1.433       .  S
C117        C118   1.382       .  A
C117        C717   1.503       .  S
C118        C119   1.382       .  A
C118        H121   1.082       .  S
C119        C120   1.382       .  A
C119        H122   1.081       .  S
C120        C187   1.482       .  S
N123        C127   1.356       .  A
N123        C124   1.358       .  A
N123        C689   1.449       .  S
C124        C125   1.375       .  A
C124        C892   1.467       .  S
C125        C126   1.364       .  A
C125        H128   1.082       .  S
C126        C127   1.383       .  A
C126        H129   1.079       .  S
C127        C179   1.464       .  S
N130        C134   1.362       .  A
N130        C131   1.360       .  A
N130        C633   1.447       .  S
C131        C132   1.381       .  A
C131        C661   1.489       .  S
C132        C133   1.371       .  A
C132        H135   1.082       .  S
C133        C134   1.384       .  A
C133        H136   1.082       .  S
C134        C194   1.482       .  S
N137        C141   1.353       .  A
N137        C138   1.353       .  A
N137        C612   1.442       .  S
C138        C139   1.378       .  A
C138        C773   1.472       .  S
C139        C140   1.366       .  A
C139        H142   1.083       .  S
C140        C141   1.377       .  A
C140        H143   1.075       .  S
C141        C174   1.461       .  S
N144        C148   1.366       .  A
N144        C145   1.367       .  A
N144        C549   1.455       .  S
C145        C146   1.380       .  A
C145        C584   1.498       .  S
C146        C147   1.368       .  A
C146        H149   1.082       .  S
C147        C148   1.384       .  A
C147        H150   1.083       .  S
C148        C175   1.486       .  S
Zr151       O152   2.431       .  S
Zr151       O153   2.475       .  S
Zr151       O154   2.453       .  S
Zr151       O157   2.427       .  S
Zr151       O159   2.382       .  S
Zr151       O160   2.390       .  S
Zr151       O161   2.419   1_545  S
Zr151       O162   2.417   1_545  S
O152        H208   0.990       .  S
O152        H216   0.988       .  S
O153        C173   1.289       .  A
O154        C175   1.283       .  A
O155       Zr165   2.435   1_545  S
O155        C174   1.280       .  A
O156       Zr164   2.440   1_545  S
O156        C175   1.287       .  A
O157        C174   1.276       .  A
O158       Zr166   2.425       .  S
O158        C173   1.280       .  A
O159       Zr164   2.399   1_545  S
O159       Zr166   2.379       .  S
O160       Zr165   2.407   1_545  S
O160       Zr166   2.377       .  S
O160        H195   0.966       .  S
O161       Zr164   2.403       .  S
O161       Zr181   2.407       .  S
O161        H198   0.966       .  S
O162       Zr165   2.388       .  S
O162       Zr181   2.390       .  S
Zr163       O188   2.441       .  S
Zr163       O182   2.482       .  S
Zr163       O190   2.458       .  S
Zr163       O178   2.412       .  S
Zr163       O169   2.399       .  S
Zr163       O170   2.431       .  S
Zr163       O171   2.378       .  S
Zr163       O172   2.389       .  S
Zr164       O183   2.442       .  S
Zr164       O176   2.433       .  S
Zr164       O177   2.457       .  S
Zr164       O170   2.399       .  S
Zr164       O171   2.390       .  S
Zr165       O167   2.435       .  S
Zr165       O189   2.436       .  S
Zr165       O191   2.419       .  S
Zr165       O169   2.393       .  S
Zr165       O172   2.395       .  S
Zr166       O192   2.436       .  S
Zr166       O193   2.436   1_545  S
Zr166       O168   2.437       .  S
Zr166       O169   2.400   1_545  S
Zr166       O170   2.393   1_545  S
O167        H204   0.990       .  S
O168        H199   0.990       .  S
O168        H213   0.990       .  S
O170        H196   0.965       .  S
O171       Zr181   2.374       .  S
O172       Zr181   2.386       .  S
O172        H197   0.965       .  S
O176        H212   0.990   1_565  S
O177        C179   1.286       .  A
O178        C179   1.275       .  A
O180       Zr181   2.438       .  S
O180        H209   0.990       .  S
Zr181       O184   2.435       .  S
Zr181       O185   2.446       .  S
Zr181       O186   2.410       .  S
O182        C187   1.292       .  A
O183        H200   0.990       .  S
O183        H215   0.990       .  S
O184        H201   0.990       .  S
O185        H205   0.990       .  S
O185        H214   0.990       .  S
O186        C187   1.278       .  A
O188        H207   0.991       .  S
O188        H211   0.989       .  S
O189        H203   0.989       .  S
O189        H210   0.990   1_565  S
O190        C194   1.286       .  A
O191        C194   1.283       .  A
O192        H202   0.990       .  S
O193        H206   0.990       .  S
N217        C221   1.375       .  A
N217        C218   1.366   1_556  A
N217        C283   1.459       .  S
C218        C219   1.383       .  A
C218        C829   1.503       .  S
C219        C220   1.360   1_554  A
C219        H222   1.082       .  S
C220        C221   1.381       .  A
C220        H223   1.083   1_455  S
C221        C521   1.505       .  S
N224        C228   1.370       .  A
N224        C225   1.367       .  A
N224        C287   1.449       .  S
C225        C226   1.384       .  A
C225        C605   1.494   1_565  S
C226        C227   1.357       .  A
C226        H229   1.083       .  S
C227        C228   1.377       .  A
C227        H230   1.083       .  S
C228        C913   1.495       .  S
N231        C235   1.366       .  A
N231        C232   1.380       .  A
N231        C295   1.454       .  S
C232        C233   1.386       .  A
C232        C500   1.516   1_655  S
C233        C234   1.361       .  A
C233        H236   1.083       .  S
C234        C235   1.379       .  A
C234        H237   1.082       .  S
C235        C668   1.493   1_545  S
N238        C242   1.377       .  A
N238        C239   1.365       .  A
N238        C302   1.466       .  S
C239        C240   1.381       .  A
C239        C948   1.507       .  S
C240        C241   1.367       .  A
C240        H243   1.082       .  S
C241        C242   1.388       .  A
C241        H244   1.083   1_655  S
C242        C465   1.524       .  S
N245        C249   1.366       .  A
N245        C246   1.367   1_545  A
N245        C282   1.450   1_545  S
C246        C247   1.382   1_565  A
C246        C696   1.485       .  S
C247        C248   1.357       .  A
C247        H250   1.083   1_545  S
C248        C249   1.378       .  A
C248        H251   1.080       .  S
C249        C808   1.485   1_556  S
N252        C256   1.366       .  A
N252        C253   1.371       .  A
N252        C281   1.450       .  S
C253        C254   1.380       .  A
C253        C437   1.491   1_455  S
C254        C255   1.357       .  A
C254        H257   1.083       .  S
C255        C256   1.380       .  A
C255        H258   1.083       .  S
C256        C577   1.488   1_565  S
Zr259       O260   2.433       .  S
Zr259       O261   2.478   1_645  S
Zr259       O262   2.475   1_655  S
Zr259       O265   2.473       .  S
Zr259       O267   2.386   1_646  S
Zr259       O268   2.392   1_546  S
Zr259       O269   2.423   1_656  S
Zr259       O270   2.421   1_556  S
O260        H316   0.990       .  S
O260        H324   0.988       .  S
O261        C281   1.291       .  A
O262        C283   1.292       .  A
O263       Zr273   2.463       .  S
O263        C282   1.291   1_554  A
O264       Zr272   2.475       .  S
O264        C283   1.295   1_554  A
O265        C282   1.289   1_545  A
O266       Zr274   2.440   1_556  S
O266        C281   1.282       .  A
O267       Zr272   2.404   1_565  S
O267       Zr274   2.391       .  S
O268       Zr273   2.406       .  S
O268       Zr274   2.377   1_655  S
O268        H303   0.968   1_554  S
O269       Zr272   2.401       .  S
O269       Zr289   2.374   1_455  S
O269        H306   0.962       .  S
O270       Zr273   2.393   1_545  S
O270       Zr289   2.396       .  S
Zr271       O296   2.446       .  S
Zr271       O290   2.494       .  S
Zr271       O298   2.469   1_455  S
Zr271       O286   2.480       .  S
Zr271       O277   2.419   1_455  S
Zr271       O278   2.424       .  S
Zr271       O279   2.392   1_565  S
Zr271       O280   2.398   1_455  S
Zr272       O291   2.437       .  S
Zr272       O284   2.433       .  S
Zr272       O285   2.455   1_545  S
Zr272       O278   2.407   1_545  S
Zr272       O279   2.405       .  S
Zr273       O275   2.434       .  S
Zr273       O297   2.437       .  S
Zr273       O299   2.473       .  S
Zr273       O277   2.387       .  S
Zr273       O280   2.405       .  S
Zr274       O300   2.437   1_454  S
Zr274       O301   2.436       .  S
Zr274       O276   2.429   1_554  S
Zr274       O277   2.396   1_455  S
Zr274       O278   2.401       .  S
O275        H312   0.991       .  S
O276        H307   0.990       .  S
O276        H321   0.989       .  S
O278        H304   0.965       .  S
O279       Zr289   2.382   1_455  S
O280       Zr289   2.380   1_565  S
O280        H305   0.967       .  S
O284        H320   0.990       .  S
O285        C287   1.290       .  A
O286        C287   1.289       .  A
O288       Zr289   2.441       .  S
O288        H317   0.990       .  S
Zr289       O292   2.435       .  S
Zr289       O293   2.442       .  S
Zr289       O294   2.410       .  S
O290        C295   1.295   1_465  A
O291        H308   0.990       .  S
O291        H323   0.989       .  S
O292        H309   0.990       .  S
O293        H313   0.989       .  S
O293        H322   0.988       .  S
O294        C295   1.281       .  A
O296        H315   0.991       .  S
O296        H319   0.990       .  S
O297        H311   0.989       .  S
O297        H318   0.990   1_554  S
O298        C302   1.292       .  A
O299        C302   1.295       .  A
O300        H310   0.990   1_655  S
O301        H314   0.991       .  S
N325        C329   1.360       .  A
N325        C326   1.362       .  A
N325        C724   1.448       .  S
C326        C327   1.378       .  A
C326       C1004   1.487       .  S
C327        C328   1.368       .  A
C327        H330   1.082       .  S
C328        C329   1.384       .  A
C328        H331   1.081       .  S
C329        C395   1.474       .  S
N332        C336   1.361       .  A
N332        C333   1.362       .  A
N332        C745   1.455       .  S
C333        C334   1.374       .  A
C333       C1060   1.473       .  S
C334        C335   1.358       .  A
C334        H337   1.082       .  S
C335        C336   1.385       .  A
C335        H338   1.082       .  S
C336        C390   1.461       .  S
N339        C343   1.370       .  A
N339        C340   1.358       .  A
N339        C444   1.463       .  S
C340        C341   1.377       .  A
C340        C640   1.485       .  S
C341        C342   1.365       .  A
C341        H344   1.083       .  S
C342        C343   1.387       .  A
C342        H345   1.082       .  S
C343        C389   1.490       .  S
N346        C350   1.373       .  A
N346        C347   1.371       .  A
N346        C493   1.481       .  S
C347        C348   1.381       .  A
C347        C556   1.503       .  S
C348        C349   1.357       .  A
C348        H351   1.083       .  S
C349        C350   1.384       .  A
C349        H352   1.083       .  S
C350        C403   1.492       .  S
N353        C357   1.369       .  A
N353        C354   1.366       .  A
N353        C391   1.464       .  S
C354        C355   1.387       .  A
C354        C528   1.516       .  S
C355        C356   1.371       .  A
C355        H358   1.082       .  S
C356        C357   1.386       .  A
C356        H359   1.083       .  S
C357        C976   1.522       .  S
N360        C364   1.368       .  A
N360        C361   1.375       .  A
N360        C410   1.466       .  S
C361        C362   1.383       .  A
C361        C472   1.510       .  S
C362        C363   1.363       .  A
C362        H365   1.083       .  S
C363        C364   1.384       .  A
C363        H366   1.082       .  S
C364        C864   1.512       .  S
Zr367       O368   2.444       .  S
Zr367       O369   2.462       .  S
Zr367       O370   2.477       .  S
Zr367       O373   2.418       .  S
Zr367       O375   2.370       .  S
Zr367       O376   2.407       .  S
Zr367       O377   2.397       .  S
Zr367       O378   2.425       .  S
O368        H424   0.990       .  S
O368        H432   0.991       .  S
O369        C389   1.294       .  A
O370        C391   1.294       .  A
O371       Zr381   2.408       .  S
O371        C390   1.280       .  A
O372       Zr380   2.455   1_655  S
O372        C391   1.288       .  A
O373        C390   1.278       .  A
O374       Zr382   2.429   1_655  S
O374        C389   1.280       .  A
O375       Zr380   2.387   1_655  S
O375       Zr382   2.393   1_655  S
O376       Zr381   2.398       .  S
O376       Zr382   2.375   1_655  S
O376        H411   0.975       .  S
O377       Zr380   2.384   1_655  S
O377       Zr397   2.414   1_655  S
O377        H414   0.966       .  S
O378       Zr381   2.389       .  S
O378       Zr397   2.391   1_655  S
Zr379       O404   2.442       .  S
Zr379       O398   2.442       .  S
Zr379       O406   2.488       .  S
Zr379       O394   2.460       .  S
Zr379       O385   2.404       .  S
Zr379       O386   2.419       .  S
Zr379       O387   2.391       .  S
Zr379       O388   2.380       .  S
Zr380       O399   2.436       .  S
Zr380       O392   2.436       .  S
Zr380       O393   2.409       .  S
Zr380       O386   2.405       .  S
Zr380       O387   2.401       .  S
Zr381       O383   2.435       .  S
Zr381       O405   2.438       .  S
Zr381       O407   2.463   1_655  S
Zr381       O385   2.390   1_655  S
Zr381       O388   2.383   1_655  S
Zr382       O408   2.436       .  S
Zr382       O409   2.435       .  S
Zr382       O384   2.436       .  S
Zr382       O385   2.403       .  S
Zr382       O386   2.398       .  S
O383        H420   0.990       .  S
O384        H415   0.991       .  S
O384        H429   0.990       .  S
O386        H412   0.966       .  S
O387       Zr397   2.379       .  S
O388       Zr397   2.394       .  S
O388        H413   0.964       .  S
O392        H428   0.990       .  S
O393        C395   1.282       .  A
O394        C395   1.287       .  A
O396       Zr397   2.437   1_655  S
O396        H425   0.990       .  S
Zr397       O400   2.436       .  S
Zr397       O401   2.444   1_455  S
Zr397       O402   2.442       .  S
O398        C403   1.289       .  A
O399        H416   0.989       .  S
O399        H431   0.990       .  S
O400        H417   0.990       .  S
O401        H421   0.990       .  S
O401        H430   0.989   1_655  S
O402        C403   1.282       .  A
O404        H423   0.991       .  S
O404        H427   0.990       .  S
O405        H419   0.991       .  S
O405        H426   0.989       .  S
O406        C410   1.296       .  A
O407        C410   1.288       .  A
O408        H418   0.990   1_455  S
O409        H422   0.990       .  S
C433        C434   1.415       .  A
C433        C438   1.421   1_655  A
C433        C451   1.449   1_655  S
C434        C435   1.415       .  A
C434        C439   1.516       .  S
C435        C436   1.415       .  A
C435        C440   1.448       .  S
C436        C437   1.414       .  A
C436        C452   1.453       .  S
C437        C438   1.414   1_655  A
C438        C441   1.449       .  S
C439        C442   1.410       .  A
C439        C446   1.415       .  A
C440        N457   1.157       .  T
C441        N459   1.157       .  T
C442        C443   1.419       .  A
C442        C447   1.451       .  S
C443        C444   1.422       .  A
C443        C449   1.446       .  S
C444        C445   1.413       .  A
C445        C446   1.421       .  A
C445        C448   1.447       .  S
C446        C450   1.449       .  S
C447        N454   1.157       .  T
C448        N455   1.157       .  T
C449        N453   1.156       .  T
C450        N456   1.157       .  T
C451        N460   1.157       .  T
C452        N458   1.157       .  T
C461        C462   1.415   1_455  A
C461        C466   1.424   1_455  A
C461        C479   1.449       .  S
C462        C463   1.408       .  A
C462        C467   1.521   1_655  S
C463        C464   1.419       .  A
C463        C468   1.451       .  S
C464        C465   1.429       .  A
C464        C480   1.448       .  S
C465        C466   1.414       .  A
C466        C469   1.445   1_655  S
C467        C470   1.415       .  A
C467        C474   1.412       .  A
C468        N485   1.157       .  T
C469        N487   1.156       .  T
C470        C471   1.425       .  A
C470        C475   1.447   1_455  S
C471        C472   1.416       .  A
C471        C477   1.449       .  S
C472        C473   1.423       .  A
C473        C474   1.417       .  A
C473        C476   1.450       .  S
C474        C478   1.453       .  S
C475        N482   1.157       .  T
C476        N483   1.157       .  T
C477        N481   1.157       .  T
C478        N484   1.157       .  T
C479        N488   1.157       .  T
C480        N486   1.157       .  T
C489        C490   1.416       .  A
C489        C494   1.422       .  A
C489        C507   1.454       .  S
C490        C491   1.415       .  A
C490        C495   1.531       .  S
C491        C492   1.424       .  A
C491        C496   1.452       .  S
C492        C493   1.434       .  A
C492        C508   1.451       .  S
C493        C494   1.424       .  A
C494        C497   1.445       .  S
C495        C498   1.416       .  A
C495        C502   1.424       .  A
C496        N513   1.157       .  T
C497        N515   1.157       .  T
C498        C499   1.413       .  A
C498        C503   1.452       .  S
C499        C500   1.422       .  A
C499        C505   1.453   1_455  S
C500        C501   1.415       .  A
C501        C502   1.427       .  A
C501        C504   1.449       .  S
C502        C506   1.450       .  S
C503        N510   1.157   1_455  T
C504        N511   1.157       .  T
C505        N509   1.157       .  T
C506        N512   1.158       .  T
C507        N516   1.157       .  T
C508        N514   1.158       .  T
C517        C518   1.411       .  A
C517        C522   1.418       .  A
C517        C535   1.450       .  S
C518        C519   1.408   1_655  A
C518        C523   1.511       .  S
C519        C520   1.415       .  A
C519        C524   1.451       .  S
C520        C521   1.422       .  A
C520        C536   1.447       .  S
C521        C522   1.419   1_455  A
C522        C525   1.449       .  S
C523        C526   1.414       .  A
C523        C530   1.410       .  A
C524        N541   1.157       .  T
C525        N543   1.157       .  T
C526        C527   1.416       .  A
C526        C531   1.452       .  S
C527        C528   1.420       .  A
C527        C533   1.449       .  S
C528        C529   1.420       .  A
C529        C530   1.419       .  A
C529        C532   1.450       .  S
C530        C534   1.449       .  S
C531        N538   1.157       .  T
C532        N539   1.157       .  T
C533        N537   1.157       .  T
C534        N540   1.157       .  T
C535        N544   1.157       .  T
C536        N542   1.156       .  T
C545        C546   1.411       .  A
C545        C550   1.416       .  A
C545        C563   1.449       .  S
C546        C547   1.414       .  A
C546        C551   1.510       .  S
C547        C548   1.418       .  A
C547        C552   1.450       .  S
C548        C549   1.409       .  A
C548        C564   1.445       .  S
C549        C550   1.417       .  A
C550        C553   1.448       .  S
C551        C554   1.409       .  A
C551        C558   1.409       .  A
C552        N569   1.157       .  T
C553        N571   1.157       .  T
C554        C555   1.412       .  A
C554        C559   1.440       .  S
C555        C556   1.414       .  A
C555        C561   1.451       .  S
C556        C557   1.422       .  A
C557        C558   1.417       .  A
C557        C560   1.450       .  S
C558        C562   1.449       .  S
C559        N566   1.153       .  T
C560        N567   1.157       .  T
C561        N565   1.157       .  T
C562        N568   1.157       .  T
C563        N572   1.157       .  T
C564        N570   1.157       .  T
C573        C574   1.419       .  A
C573        C578   1.415   1_545  A
C573        C591   1.450   1_545  S
C574        C575   1.417       .  A
C574        C579   1.518       .  S
C575        C576   1.415       .  A
C575        C580   1.447       .  S
C576        C577   1.410       .  A
C576        C592   1.450       .  S
C577        C578   1.410   1_545  A
C578        C581   1.448       .  S
C579        C582   1.417       .  A
C579        C586   1.416       .  A
C580        N597   1.157       .  T
C581        N599   1.156       .  T
C582        C583   1.414       .  A
C582        C587   1.452   1_545  S
C583        C584   1.415       .  A
C583        C589   1.451       .  S
C584        C585   1.414       .  A
C585        C586   1.420       .  A
C585        C588   1.449       .  S
C586        C590   1.448       .  S
C587        N594   1.157       .  T
C588        N595   1.157       .  T
C589        N593   1.158   1_545  T
C590        N596   1.157       .  T
C591        N600   1.157       .  T
C592        N598   1.157   1_455  T
C601        C602   1.414       .  A
C601        C606   1.412       .  A
C601        C619   1.449       .  S
C602        C603   1.414       .  A
C602        C607   1.505       .  S
C603        C604   1.415   1_545  A
C603        C608   1.449   1_545  S
C604        C605   1.410   1_565  A
C604        C620   1.446       .  S
C605        C606   1.411       .  A
C606        C609   1.449       .  S
C607        C610   1.412       .  A
C607        C614   1.418       .  A
C608        N625   1.157       .  T
C609        N627   1.157       .  T
C610        C611   1.412       .  A
C610        C615   1.450       .  S
C611        C612   1.413       .  A
C611        C617   1.449       .  S
C612        C613   1.404       .  A
C613        C614   1.413       .  A
C613        C616   1.447       .  S
C614        C618   1.449       .  S
C615        N622   1.157       .  T
C616        N623   1.157       .  T
C617        N621   1.157       .  T
C618        N624   1.157   1_545  T
C619        N628   1.157       .  T
C620        N626   1.157       .  T
C629        C630   1.412       .  A
C629        C634   1.407       .  A
C629        C647   1.452       .  S
C630        C631   1.410       .  A
C630        C635   1.497       .  S
C631        C632   1.413       .  A
C631        C636   1.450       .  S
C632        C633   1.413       .  A
C632        C648   1.445       .  S
C633        C634   1.414       .  A
C634        C637   1.450       .  S
C635        C638   1.411       .  A
C635        C642   1.413       .  A
C636        N653   1.157       .  T
C637        N655   1.157       .  T
C638        C639   1.407       .  A
C638        C643   1.451       .  S
C639        C640   1.412       .  A
C639        C645   1.450       .  S
C640        C641   1.405       .  A
C641        C642   1.414       .  A
C641        C644   1.444       .  S
C642        C646   1.449       .  S
C643        N650   1.157       .  T
C644        N651   1.156       .  T
C645        N649   1.157       .  T
C646        N652   1.158       .  T
C647        N656   1.157       .  T
C648        N654   1.157       .  T
C657        C658   1.413       .  A
C657        C662   1.407       .  A
C657        C675   1.453       .  S
C658        C659   1.412       .  A
C658        C663   1.499       .  S
C659        C660   1.417       .  A
C659        C664   1.449       .  S
C660        C661   1.412       .  A
C660        C676   1.448       .  S
C661        C662   1.414       .  A
C662        C665   1.454       .  S
C663        C666   1.412       .  A
C663        C670   1.408       .  A
C664        N681   1.157       .  T
C665        N683   1.157       .  T
C666        C667   1.416       .  A
C666        C671   1.448       .  S
C667        C668   1.414       .  A
C667        C673   1.449       .  S
C668        C669   1.415       .  A
C669        C670   1.408       .  A
C669        C672   1.446       .  S
C670        C674   1.453       .  S
C671        N678   1.157       .  T
C672        N679   1.156       .  T
C673        N677   1.157   1_655  T
C674        N680   1.157       .  T
C675        N684   1.157   1_565  T
C676        N682   1.157       .  T
C685        C686   1.407       .  A
C685        C690   1.408       .  A
C685        C703   1.448       .  S
C686        C687   1.416       .  A
C686        C691   1.502       .  S
C687        C688   1.418       .  A
C687        C692   1.450       .  S
C688        C689   1.409       .  A
C688        C704   1.446       .  S
C689        C690   1.412       .  A
C690        C693   1.445       .  S
C691        C694   1.411       .  A
C691        C698   1.412       .  A
C692        N709   1.157       .  T
C693        N711   1.156       .  T
C694        C695   1.413       .  A
C694        C699   1.450       .  S
C695        C696   1.413       .  A
C695        C701   1.448       .  S
C696        C697   1.412       .  A
C697        C698   1.414       .  A
C697        C700   1.449       .  S
C698        C702   1.449       .  S
C699        N706   1.157       .  T
C700        N707   1.157   1_556  T
C701        N705   1.157   1_565  T
C702        N708   1.157       .  T
C703        N712   1.157       .  T
C704        N710   1.157       .  T
C713        C714   1.415       .  A
C713        C718   1.418       .  A
C713        C731   1.452       .  S
C714        C715   1.412       .  A
C714        C719   1.513       .  S
C715        C716   1.415       .  A
C715        C720   1.451       .  S
C716        C717   1.416       .  A
C716        C732   1.449       .  S
C717        C718   1.415       .  A
C718        C721   1.448       .  S
C719        C722   1.418       .  A
C719        C726   1.415       .  A
C720        N737   1.157       .  T
C721        N739   1.157       .  T
C722        C723   1.415       .  A
C722        C727   1.450       .  S
C723        C724   1.409       .  A
C723        C729   1.447       .  S
C724        C725   1.410       .  A
C725        C726   1.414       .  A
C725        C728   1.449       .  S
C726        C730   1.449       .  S
C727        N734   1.157       .  T
C728        N735   1.157       .  T
C729        N733   1.157       .  T
C730        N736   1.157       .  T
C731        N740   1.158       .  T
C732        N738   1.157       .  T
C741        C742   1.412       .  A
C741        C746   1.417       .  A
C741        C759   1.449       .  S
C742        C743   1.413       .  A
C742        C747   1.508       .  S
C743        C744   1.413       .  A
C743        C748   1.452       .  S
C744        C745   1.413       .  A
C744        C760   1.446       .  S
C745        C746   1.415       .  A
C746        C749   1.447       .  S
C747        C750   1.413       .  A
C747        C754   1.410       .  A
C748        N765   1.157       .  T
C749        N767   1.157       .  T
C750        C751   1.418       .  A
C750        C755   1.451       .  S
C751        C752   1.416       .  A
C751        C757   1.449       .  S
C752        C753   1.416       .  A
C753        C754   1.414       .  A
C753        C756   1.448       .  S
C754        C758   1.451       .  S
C755        N762   1.157       .  T
C756        N763   1.157       .  T
C757        N761   1.157       .  T
C758        N764   1.157       .  T
C759        N768   1.157       .  T
C760        N766   1.157       .  T
C769        C770   1.409       .  A
C769        C774   1.409       .  A
C769        C787   1.447       .  S
C770        C771   1.407       .  A
C770        C775   1.485       .  S
C771        C772   1.398       .  A
C771        C776   1.453       .  S
C772        C773   1.413       .  A
C772        C788   1.452       .  S
C773        C774   1.410       .  A
C774        C777   1.449       .  S
C775        C778   1.412       .  A
C775        C782   1.404       .  A
C776        N793   1.157       .  T
C777        N795   1.157       .  T
C778        C779   1.407       .  A
C778        C783   1.453       .  S
C779        C780   1.413       .  A
C779        C785   1.448       .  S
C780        C781   1.416       .  A
C781        C782   1.408       .  A
C781        C784   1.446       .  S
C782        C786   1.451       .  S
C783        N790   1.158       .  T
C784        N791   1.158       .  T
C785        N789   1.156       .  T
C786        N792   1.157       .  T
C787        N796   1.157       .  T
C788        N794   1.157       .  T
C797        C798   1.411       .  A
C797        C802   1.410       .  A
C797        C815   1.452       .  S
C798        C799   1.412       .  A
C798        C803   1.510       .  S
C799        C800   1.420       .  A
C799        C804   1.448       .  S
C800        C801   1.415       .  A
C800        C816   1.448       .  S
C801        C802   1.417       .  A
C802        C805   1.449       .  S
C803        C806   1.411       .  A
C803        C810   1.417       .  A
C804        N821   1.157       .  T
C805        N823   1.157       .  T
C806        C807   1.416   1_554  A
C806        C811   1.449   1_554  S
C807        C808   1.416   1_556  A
C807        C813   1.450       .  S
C808        C809   1.408       .  A
C809        C810   1.414       .  A
C809        C812   1.450       .  S
C810        C814   1.450       .  S
C811        N818   1.157       .  T
C812        N819   1.157       .  T
C813        N817   1.157       .  T
C814        N820   1.157       .  T
C815        N824   1.157       .  T
C816        N822   1.157       .  T
C825        C826   1.413       .  A
C825        C830   1.408       .  A
C825        C843   1.450       .  S
C826        C827   1.412       .  A
C826        C831   1.502       .  S
C827        C828   1.418       .  A
C827        C832   1.449   1_554  S
C828        C829   1.415       .  A
C828        C844   1.449   1_554  S
C829        C830   1.413       .  A
C830        C833   1.451       .  S
C831        C834   1.408       .  A
C831        C838   1.414       .  A
C832        N849   1.157       .  T
C833        N851   1.157       .  T
C834        C835   1.411       .  A
C834        C839   1.449       .  S
C835        C836   1.410       .  A
C835        C841   1.440       .  S
C836        C837   1.411       .  A
C837        C838   1.415       .  A
C837        C840   1.448       .  S
C838        C842   1.449       .  S
C839        N846   1.157       .  T
C840        N847   1.157       .  T
C841        N845   1.153       .  T
C842        N848   1.157       .  T
C843        N852   1.157       .  T
C844        N850   1.158       .  T
C853        C854   1.411       .  A
C853        C858   1.415       .  A
C853        C871   1.450       .  S
C854        C855   1.418       .  A
C854        C859   1.517       .  S
C855        C856   1.421       .  A
C855        C860   1.449       .  S
C856        C857   1.413       .  A
C856        C872   1.446       .  S
C857        C858   1.419       .  A
C858        C861   1.448       .  S
C859        C862   1.410       .  A
C859        C866   1.413       .  A
C860        N877   1.157       .  T
C861        N879   1.156       .  T
C862        C863   1.414       .  A
C862        C867   1.441       .  S
C863        C864   1.419       .  A
C863        C869   1.452       .  S
C864        C865   1.420       .  A
C865        C866   1.419       .  A
C865        C868   1.449       .  S
C866        C870   1.450       .  S
C867        N874   1.153       .  T
C868        N875   1.157       .  T
C869        N873   1.157       .  T
C870        N876   1.157       .  T
C871        N880   1.157       .  T
C872        N878   1.157       .  T
C881        C882   1.410       .  A
C881        C886   1.408       .  A
C881        C899   1.452       .  S
C882        C883   1.403       .  A
C882        C887   1.485       .  S
C883        C884   1.406       .  A
C883        C888   1.453       .  S
C884        C885   1.417       .  A
C884        C900   1.447       .  S
C885        C886   1.414       .  A
C886        C889   1.451       .  S
C887        C890   1.411       .  A
C887        C894   1.403       .  A
C888        N905   1.157       .  T
C889        N907   1.157       .  T
C890        C891   1.401       .  A
C890        C895   1.452       .  S
C891        C892   1.409       .  A
C891        C897   1.452       .  S
C892        C893   1.411       .  A
C893        C894   1.404       .  A
C893        C896   1.449       .  S
C894        C898   1.442       .  S
C895        N902   1.157       .  T
C896        N903   1.157       .  T
C897        N901   1.157       .  T
C898        N904   1.154       .  T
C899        N908   1.158       .  T
C900        N906   1.155   1_556  T
C909        C910   1.410       .  A
C909        C914   1.417       .  A
C909        C927   1.450       .  S
C910        C911   1.414       .  A
C910        C915   1.511       .  S
C911        C912   1.417       .  A
C911        C916   1.449       .  S
C912        C913   1.414       .  A
C912        C928   1.450       .  S
C913        C914   1.417       .  A
C914        C917   1.448       .  S
C915        C918   1.411       .  A
C915        C922   1.415       .  A
C916        N933   1.157   1_554  T
C917        N935   1.157       .  T
C918        C919   1.417       .  A
C918        C923   1.448       .  S
C919        C920   1.415       .  A
C919        C925   1.448       .  S
C920        C921   1.409       .  A
C921        C922   1.417       .  A
C921        C924   1.444       .  S
C922        C926   1.449       .  S
C923        N930   1.157       .  T
C924        N931   1.157       .  T
C925        N929   1.157       .  T
C926        N932   1.157       .  T
C927        N936   1.157       .  T
C928        N934   1.157       .  T
C937        C938   1.412       .  A
C937        C942   1.412       .  A
C937        C955   1.450       .  S
C938        C939   1.411       .  A
C938        C943   1.505       .  S
C939        C940   1.417       .  A
C939        C944   1.448       .  S
C940        C941   1.412       .  A
C940        C956   1.445       .  S
C941        C942   1.410       .  A
C942        C945   1.445       .  S
C943        C946   1.414       .  A
C943        C950   1.410       .  A
C944        N961   1.157       .  T
C945        N963   1.156       .  T
C946        C947   1.414       .  A
C946        C951   1.451       .  S
C947        C948   1.417       .  A
C947        C953   1.451       .  S
C948        C949   1.419       .  A
C949        C950   1.416       .  A
C949        C952   1.448       .  S
C950        C954   1.449       .  S
C951        N958   1.157   1_554  T
C952        N959   1.156       .  T
C953        N957   1.157       .  T
C954        N960   1.157       .  T
C955        N964   1.157       .  T
C956        N962   1.156       .  T
C965        C966   1.416       .  A
C965        C970   1.417       .  A
C965        C983   1.451       .  S
C966        C967   1.419       .  A
C966        C971   1.527       .  S
C967        C968   1.421       .  A
C967        C972   1.449       .  S
C968        C969   1.411       .  A
C968        C984   1.444       .  S
C969        C970   1.421       .  A
C970        C973   1.449       .  S
C971        C974   1.420       .  A
C971        C978   1.414       .  A
C972        N989   1.157       .  T
C973        N991   1.157       .  T
C974        C975   1.422       .  A
C974        C979   1.450       .  S
C975        C976   1.414       .  A
C975        C981   1.446       .  S
C976        C977   1.428       .  A
C977        C978   1.418       .  A
C977        C980   1.452       .  S
C978        C982   1.451       .  S
C979        N986   1.157       .  T
C980        N987   1.157       .  T
C981        N985   1.156       .  T
C982        N988   1.157       .  T
C983        N992   1.157       .  T
C984        N990   1.156   1_556  T
C993        C994   1.415       .  A
C993        C998   1.411       .  A
C993       C1011   1.449       .  S
C994        C995   1.410       .  A
C994        C999   1.500       .  S
C995        C996   1.411       .  A
C995       C1000   1.450       .  S
C996        C997   1.408       .  A
C996       C1012   1.441       .  S
C997        C998   1.405       .  A
C998       C1001   1.447       .  S
C999       C1002   1.410       .  A
C999       C1006   1.412       .  A
C1000      N1017   1.157       .  T
C1001      N1019   1.157       .  T
C1002      C1003   1.410       .  A
C1002      C1007   1.451       .  S
C1003      C1004   1.416       .  A
C1003      C1009   1.452       .  S
C1004      C1005   1.410       .  A
C1005      C1006   1.412       .  A
C1005      C1008   1.449       .  S
C1006      C1010   1.448       .  S
C1007      N1014   1.157       .  T
C1008      N1015   1.157       .  T
C1009      N1013   1.158       .  T
C1010      N1016   1.156       .  T
C1011      N1020   1.157       .  T
C1012      N1018   1.154       .  T
C1021      C1022   1.410       .  A
C1021      C1026   1.407       .  A
C1021      C1039   1.450       .  S
C1022      C1023   1.415       .  A
C1022      C1027   1.498       .  S
C1023      C1024   1.413       .  A
C1023      C1028   1.451       .  S
C1024      C1025   1.410       .  A
C1024      C1040   1.449       .  S
C1025      C1026   1.413       .  A
C1026      C1029   1.452       .  S
C1027      C1030   1.411       .  A
C1027      C1034   1.414       .  A
C1028      N1045   1.157       .  T
C1029      N1047   1.157       .  T
C1030      C1031   1.410       .  A
C1030      C1035   1.451       .  S
C1031      C1032   1.411       .  A
C1031      C1037   1.447       .  S
C1032      C1033   1.406       .  A
C1033      C1034   1.410       .  A
C1033      C1036   1.445       .  S
C1034      C1038   1.450       .  S
C1035      N1042   1.157       .  T
C1036      N1043   1.157       .  T
C1037      N1041   1.157       .  T
C1038      N1044   1.157       .  T
C1039      N1048   1.157       .  T
C1040      N1046   1.157       .  T
C1049      C1050   1.409       .  A
C1049      C1054   1.409       .  A
C1049      C1067   1.450       .  S
C1050      C1051   1.414       .  A
C1050      C1055   1.495       .  S
C1051      C1052   1.412       .  A
C1051      C1056   1.451       .  S
C1052      C1053   1.409       .  A
C1052      C1068   1.447       .  S
C1053      C1054   1.408       .  A
C1054      C1057   1.447       .  S
C1055      C1058   1.409       .  A
C1055      C1062   1.413       .  A
C1056      N1073   1.158       .  T
C1057      N1075   1.157       .  T
C1058      C1059   1.408       .  A
C1058      C1063   1.449       .  S
C1059      C1060   1.415       .  A
C1059      C1065   1.453       .  S
C1060      C1061   1.407       .  A
C1061      C1062   1.406       .  A
C1061      C1064   1.451       .  S
C1062      C1066   1.448       .  S
C1063      N1070   1.157       .  T
C1064      N1071   1.157       .  T
C1065      N1069   1.158       .  T
C1066      N1072   1.156       .  T
C1067      N1076   1.157       .  T
C1068      N1074   1.157       .  T
C1077      C1078   1.408       .  A
C1077      C1082   1.403       .  A
C1077      C1095   1.454       .  S
C1078      C1079   1.407       .  A
C1078      C1083   1.481       .  S
C1079      C1080   1.404       .  A
C1079      C1084   1.452       .  S
C1080      C1081   1.417       .  A
C1080      C1096   1.452       .  S
C1081      C1082   1.411       .  A
C1082      C1085   1.446       .  S
C1083      C1086   1.409       .  A
C1083      C1090   1.410       .  A
C1084      N1101   1.157       .  T
C1085      N1103   1.157       .  T
C1086      C1087   1.402       .  A
C1086      C1091   1.452       .  S
C1087      C1088   1.409       .  A
C1087      C1093   1.449       .  S
C1088      C1089   1.406       .  A
C1089      C1090   1.404       .  A
C1089      C1092   1.445       .  S
C1090      C1094   1.452       .  S
C1091      N1098   1.157       .  T
C1092      N1099   1.157       .  T
C1093      N1097   1.157       .  T
C1094      N1100   1.158       .  T
C1095      N1104   1.157       .  T
C1096      N1102   1.157       .  T
