geometry optimzed in LAMMPS
_audit_creation_date              2020-12-01 
_audit_creation_method            'lammps2cif' 
_symmetry_space_group_name_H-M    'P1' 
_symmetry_Int_Tables_number       1 
_symmetry_cell_setting            triclinic 
loop_ 
_symmetry_equiv_pos_as_xyz 
  x,y,z 
_cell_length_a                    34.65376872 
_cell_length_b                    34.661661153384 
_cell_length_c                    34.61884316538594 
_cell_angle_alpha                 90.22253321748813 
_cell_angle_beta                  89.93806066751942 
_cell_angle_gamma                 90.27265118712276 
loop_ 
_atom_site_label 
_atom_site_type_symbol 
_atom_site_fract_x 
_atom_site_fract_y 
_atom_site_fract_z 
_atom_site_charge 
Fe1        Fe  0.13194615  0.81525450  0.56120507     1.65800
Fe2        Fe  0.22364319  0.78842099  0.54876930     1.73200
Fe3        Fe  0.15334429  0.72410361  0.53301607     1.54400
O4          O  0.12664714  0.71865461  0.58580718    -0.81800
O5          O  0.23672704  0.75033703  0.50221806    -0.80100
O6          O  0.09696293  0.77531396  0.59138290    -0.84300
O7          O  0.10307614  0.80750083  0.51082087    -0.79200
O8          O  0.20404490  0.69733698  0.55544614    -0.81000
O9          O  0.21851694  0.83351127  0.51090586    -0.83700
C10         C  0.09036756  0.77676559  0.49556905     0.97100
C11         C  0.10313982  0.74087657  0.60310076     1.04500
O12         O  0.16934493  0.77651356  0.54632444    -1.12700
O13         O  0.21915859  0.82466407  0.59683384    -0.75100
O14         O  0.15728477  0.82458988  0.61328578    -0.78600
O15         O  0.10225829  0.74342606  0.50587249    -0.79300
C16         C  0.19238232  0.82847167  0.62173671     0.96000
O17         O  0.16394497  0.85952443  0.53324546    -0.77300
O18         O  0.22853758  0.74596802  0.58803073    -0.82400
C19         C  0.21709606  0.72987751  0.47827532     0.98600
C20         C  0.23059754  0.71170742  0.57666014     1.04500
O21         O  0.18060322  0.72762485  0.48062459    -0.78100
C22         C  0.19460914  0.86119700  0.51236572     1.02800
Fe23       Fe  0.35415343  0.89176269  0.86414440     1.65800
Fe24       Fe  0.32549373  0.90517954  0.77231527     1.73200
Fe25       Fe  0.26179723  0.91662302  0.84434348     1.54400
O26         O  0.25862405  0.86535793  0.87380753    -0.81800
O27         O  0.28442752  0.94804296  0.75886521    -0.80100
O28         O  0.31707134  0.85883899  0.89945598    -0.84300
O29         O  0.34511410  0.94087587  0.89537695    -0.79200
O30         O  0.23585638  0.88898974  0.79624534    -0.81000
O31         O  0.36794058  0.94618576  0.77936692    -0.83700
C32         C  0.31428279  0.95690232  0.90655891     0.97100
C33         C  0.28204233  0.84780168  0.89567707     1.04500
O34         O  0.31397845  0.90522627  0.82726011    -1.12700
O35         O  0.36523890  0.86037096  0.77566151    -0.75100
O36         O  0.36517316  0.84100336  0.83662208    -0.78600
O37         O  0.28116361  0.94740007  0.89322994    -0.79300
C38         C  0.36998990  0.83448898  0.80114197     0.96000
O39         O  0.39609790  0.92258837  0.83223362    -0.77300
O40         O  0.28521408  0.86359718  0.76411131    -0.82400
C41         C  0.26260282  0.97018730  0.77862937     0.98600
C42         C  0.24942582  0.86784427  0.76918682     1.04500
O43         O  0.26129335  0.96788276  0.81513660    -0.78100
C44         C  0.39623869  0.94484315  0.80270519     1.02800
Fe45       Fe  0.43264394  0.58685717  0.64159503     1.65800
Fe46       Fe  0.44970064  0.67916026  0.66479451     1.73200
Fe47       Fe  0.45925369  0.61159673  0.73271943     1.54400
O48         O  0.40726400  0.58344534  0.73802353    -0.81800
O49         O  0.49248065  0.69452612  0.70566447    -0.80100
O50         O  0.39934748  0.55473915  0.68097678    -0.84300
O51         O  0.48104037  0.55519348  0.65205632    -0.79200
O52         O  0.43268314  0.66181409  0.75546710    -0.81000
O53         O  0.49072315  0.66792140  0.62402840    -0.83700
C54         C  0.49749541  0.54592847  0.68334698     0.97100
C55         C  0.38893577  0.56057995  0.71591506     1.04500
O56         O  0.44785074  0.62543157  0.67966442    -1.12700
O57         O  0.40576575  0.67394784  0.62368739    -0.75100
O58         O  0.38237783  0.61491119  0.62977501    -0.78600
O59         O  0.48871298  0.56121502  0.71587001    -0.79300
C60         C  0.37827642  0.64966178  0.62017171     0.96000
O61         O  0.46370704  0.61577844  0.59708047    -0.77300
O62         O  0.40817643  0.69100812  0.70393056    -0.82400
C63         C  0.51454153  0.67575240  0.72822620     0.98600
C64         C  0.41195033  0.68806393  0.74007659     1.04500
O65         O  0.51148737  0.63950268  0.73142248    -0.78100
C66         C  0.48718326  0.64459768  0.59586484     1.02800
Fe67       Fe  0.85808001  0.55631716  0.09645421     1.65800
Fe68       Fe  0.82867136  0.53904706  0.18742454     1.73200
Fe69       Fe  0.76601555  0.52759260  0.11451702     1.54400
O70         O  0.76150321  0.57992810  0.08694024    -0.81800
O71         O  0.78900423  0.49426937  0.19860827    -0.80100
O72         O  0.82019196  0.58946261  0.06235561    -0.84300
O73         O  0.85040695  0.50772446  0.06383154    -0.79200
O74         O  0.73873919  0.55208917  0.16363923    -0.81000
O75         O  0.87210736  0.50000366  0.17911320    -0.83700
C76         C  0.82027766  0.49051675  0.05218041     0.97100
C77         C  0.78478076  0.59912152  0.06601151     1.04500
O78         O  0.81773945  0.54052680  0.13248086    -1.12700
O79         O  0.86707881  0.58540674  0.18630964    -0.75100
O80         O  0.86818089  0.60636837  0.12583441    -0.78600
O81         O  0.78669755  0.49923763  0.06473962    -0.79300
C82         C  0.87242529  0.61191041  0.16157748     0.96000
O83         O  0.90076098  0.52563524  0.12734210    -0.77300
O84         O  0.78687358  0.57848001  0.19715673    -0.82400
C85         C  0.76789259  0.47201920  0.17808447     0.98600
C86         C  0.75131515  0.57260928  0.19173819     1.04500
O87         O  0.76682506  0.47518119  0.14167080    -0.78100
C88         C  0.90071560  0.50257518  0.15626580     1.02800
Fe89       Fe  0.62614402  0.62971510  0.39501085     1.65800
Fe90       Fe  0.71862245  0.65428018  0.40934787     1.73200
Fe91       Fe  0.65058411  0.72064943  0.42308111     1.54400
O92         O  0.62173105  0.72667783  0.37147234    -0.81800
O93         O  0.73456252  0.69522707  0.45253965    -0.80100
O94         O  0.59381487  0.66933278  0.36214834    -0.84300
O95         O  0.59470020  0.63920272  0.44371818    -0.79200
O96         O  0.70133114  0.74466269  0.39691212    -0.81000
O97         O  0.70989675  0.61275434  0.45011405    -0.83700
C98         C  0.58530892  0.66974411  0.46138864     0.97100
C99         C  0.59922241  0.70458764  0.35254770     1.04500
O100        O  0.66455890  0.66788904  0.41015155    -1.12700
O101        O  0.71380912  0.61397808  0.36461157    -0.75100
O102        O  0.65353194  0.61801895  0.34418101    -0.78600
O103        O  0.60027739  0.70264170  0.45322439    -0.79300
C104        C  0.68859343  0.61095448  0.33815771     0.96000
O105        O  0.65566058  0.58630522  0.42639502    -0.77300
O106        O  0.72583319  0.69377471  0.36754044    -0.82400
C107        C  0.71582255  0.71666873  0.47602238     0.98600
C108        C  0.72713490  0.72920616  0.37536019     1.04500
O109        O  0.67932718  0.71803485  0.47469826    -0.78100
C110        C  0.68502522  0.58563263  0.44910886     1.02800
Fe111      Fe  0.93095155  0.85942420  0.32341901     1.65800
Fe112      Fe  0.94806645  0.76773101  0.29832522     1.73200
Fe113      Fe  0.95749858  0.83681451  0.23195287     1.54400
O114        O  0.90566349  0.86507839  0.22715015    -0.81800
O115        O  0.98979087  0.75312247  0.25623850    -0.80100
O116        O  0.89785625  0.89245605  0.28486608    -0.84300
O117        O  0.97947664  0.89152290  0.31364511    -0.79200
O118        O  0.93077087  0.78652351  0.20865989    -0.81000
O119        O  0.98981365  0.77852528  0.33836459    -0.83700
C120        C  0.99650153  0.90134379  0.28273988     0.97100
C121        C  0.88757866  0.88758028  0.24973776     1.04500
O122        O  0.94614050  0.82182499  0.28459402    -1.12700
O123        O  0.90540600  0.77216216  0.34050645    -0.75100
O124        O  0.88061829  0.83032904  0.33435474    -0.78600
O125        O  0.98750582  0.88702512  0.24977467    -0.79300
C126        C  0.87683801  0.79497484  0.34196909     0.96000
O127        O  0.96236365  0.82972483  0.36658735    -0.77300
O128        O  0.90566699  0.75682891  0.25981205    -0.82400
C129        C  0.01181137  0.77268323  0.23414597     0.98600
C130        C  0.91021693  0.75968091  0.22374801     1.04500
O131        O  0.00945527  0.80907182  0.23293121    -0.78100
C132        C  0.98647896  0.80166640  0.36672022     1.02800
Fe133      Fe  0.59356961  0.08819189  0.81773323     1.65800
Fe134      Fe  0.57878653  0.17979713  0.79207042     1.73200
Fe135      Fe  0.56853145  0.10998078  0.72590545     1.54400
O136        O  0.61970943  0.08041552  0.72195275    -0.81800
O137        O  0.53767677  0.19465002  0.74943264    -0.80100
O138        O  0.62710437  0.05416723  0.77997665    -0.84300
O139        O  0.54474012  0.05669659  0.80751405    -0.79200
O140        O  0.59684642  0.15929747  0.70256588    -0.81000
O141        O  0.53622970  0.17103697  0.83199761    -0.83700
C142        C  0.52763495  0.04693290  0.77660846     0.97100
C143        C  0.63761641  0.05827753  0.74483084     1.04500
O144        O  0.57949667  0.12548342  0.77863697    -1.12700
O145        O  0.62106291  0.17529881  0.83471325    -0.75100
O146        O  0.64425141  0.11643448  0.82932345    -0.78600
O147        O  0.53696177  0.06081951  0.74365283    -0.79300
C148        C  0.64874815  0.15153120  0.83784744     0.96000
O149        O  0.56160755  0.11898197  0.86016192    -0.77300
O150        O  0.62205380  0.18849790  0.75406823    -0.82400
C151        C  0.51521599  0.17520981  0.72748934     0.98600
C152        C  0.61803601  0.18556143  0.71796865     1.04500
O153        O  0.51725734  0.13883341  0.72599370    -0.78100
C154        C  0.53821503  0.14770590  0.86015304     1.02800
Fe155      Fe  0.90142300  0.31354186  0.89777110     1.65800
Fe156      Fe  0.80863115  0.28977126  0.90979449     1.73200
Fe157      Fe  0.87585976  0.22263745  0.92324566     1.54400
O158        O  0.90391657  0.21709106  0.87108127    -0.81800
O159        O  0.79257268  0.24963706  0.95346176    -0.80100
O160        O  0.93463066  0.27357620  0.86651663    -0.84300
O161        O  0.93032580  0.30363801  0.94779816    -0.79200
O162        O  0.82446420  0.19881597  0.89800336    -0.81000
O163        O  0.81670169  0.33200033  0.95043532    -0.83700
C164        C  0.94031386  0.27248052  0.96376477     0.97100
C165        C  0.92797490  0.23929984  0.85441231     1.04500
O166        O  0.86239457  0.27570082  0.91133497    -1.12700
O167        O  0.81488431  0.32916227  0.86473619    -0.75100
O168        O  0.87591320  0.32528457  0.84602419    -0.78600
O169        O  0.92662759  0.23964283  0.95326843    -0.79300
C170        C  0.84096091  0.33216085  0.83903313     0.96000
O171        O  0.87151155  0.35757798  0.92750660    -0.77300
O172        O  0.80185842  0.24969480  0.86803052    -0.82400
C173        C  0.81140940  0.22829763  0.97682573     0.98600
C174        C  0.79860984  0.21489674  0.87728086     1.04500
O175        O  0.84781434  0.22603769  0.97495513    -0.78100
C176        C  0.84162107  0.35903541  0.94939306     1.02800
Fe177      Fe  0.67136517  0.39286799  0.59989324     1.65800
Fe178      Fe  0.70071960  0.40694547  0.69170637     1.73200
Fe179      Fe  0.76303337  0.42155840  0.61907498     1.54400
O180        O  0.76789505  0.36991900  0.59001970    -0.81800
O181        O  0.74011301  0.45196989  0.70476486    -0.80100
O182        O  0.70938735  0.36097543  0.56484139    -0.84300
O183        O  0.67872855  0.44228446  0.56880583    -0.79200
O184        O  0.79073567  0.39606963  0.66716020    -0.81000
O185        O  0.65654372  0.44568460  0.68536631    -0.83700
C186        C  0.70888999  0.45943709  0.55722442     0.97100
C187        C  0.74462598  0.35099027  0.56877909     1.04500
O188        O  0.71147743  0.40766385  0.63662721    -1.12700
O189        O  0.66312574  0.35980676  0.68858265    -0.75100
O190        O  0.66128686  0.34187915  0.62700818    -0.78600
O191        O  0.74237476  0.45086432  0.56998759    -0.79300
C192        C  0.65753471  0.33453372  0.66239880     0.96000
O193        O  0.62880924  0.42232029  0.63184880    -0.77300
O194        O  0.74298906  0.36771418  0.69934104    -0.82400
C195        C  0.76078286  0.47504758  0.68474884     0.98600
C196        C  0.77847393  0.37426038  0.69423708     1.04500
O197        O  0.76118198  0.47301874  0.64818560    -0.78100
C198        C  0.62843769  0.44417990  0.66180318     1.02800
Fe199      Fe  0.39695960  0.13263553  0.06093868     1.65800
Fe200      Fe  0.30507869  0.15834782  0.04686209     1.73200
Fe201      Fe  0.37491343  0.22365064  0.03309816     1.54400
O202        O  0.40489808  0.22923719  0.08402918    -0.81800
O203        O  0.28973459  0.19885243  0.00414120    -0.80100
O204        O  0.43157436  0.17158254  0.09235250    -0.84300
O205        O  0.42684961  0.14092429  0.01091238    -0.79200
O206        O  0.32613725  0.24862461  0.06100744    -0.81000
O207        O  0.31343555  0.11655469  0.00601376    -0.83700
C208        C  0.43681946  0.17103135  0.99279015     0.97100
C209        C  0.42705773  0.20675295  0.10242153     1.04500
O210        O  0.35939360  0.17148963  0.04639739    -1.12700
O211        O  0.31024531  0.11815683  0.09117226    -0.75100
O212        O  0.37023381  0.12261529  0.11251412    -0.78600
O213        O  0.42372584  0.20442276  0.00171049    -0.79300
C214        C  0.33497211  0.11574371  0.11818231     0.96000
O215        O  0.36558383  0.08896395  0.03166704    -0.77300
O216        O  0.29653490  0.19856946  0.08827006    -0.82400
C217        C  0.30866185  0.22019860  0.98086265     0.98600
C218        C  0.29989949  0.23444893  0.08297113     1.04500
O219        O  0.34514113  0.22173124  0.98207207    -0.78100
C220        C  0.33656174  0.08834763  0.00864863     1.02800
Fe221      Fe  0.09510115  0.35702794  0.13906657     1.65800
Fe222      Fe  0.08064031  0.26483677  0.16695779     1.73200
Fe223      Fe  0.06900557  0.33609660  0.23118512     1.54400
O224        O  0.12120296  0.36410889  0.23523952    -0.81800
O225        O  0.03612146  0.25188326  0.20730868    -0.80100
O226        O  0.12835488  0.39096733  0.17722227    -0.84300
O227        O  0.04652779  0.38867127  0.14862020    -0.79200
O228        O  0.09390523  0.28643284  0.25696697    -0.81000
O229        O  0.04061206  0.27260556  0.12396740    -0.83700
C230        C  0.03088577  0.39997001  0.17967814     0.97100
C231        C  0.13906999  0.38644868  0.21223701     1.04500
O232        O  0.08106371  0.31964046  0.17882534    -1.12700
O233        O  0.12686604  0.26836816  0.12817419    -0.75100
O234        O  0.14558057  0.32967903  0.12699387    -0.78600
O235        O  0.04019009  0.38628315  0.21262565    -0.79300
C236        C  0.15245664  0.29429265  0.12266335     0.96000
O237        O  0.06374417  0.32619961  0.09649408    -0.77300
O238        O  0.12118873  0.25533678  0.20801360    -0.82400
C239        C  0.01365276  0.27203625  0.22861748     0.98600
C240        C  0.11471067  0.25903117  0.24366621     1.04500
O241        O  0.01679542  0.30842569  0.23001309    -0.78100
C242        C  0.04150984  0.29646689  0.09617087     1.02800
Fe243      Fe  0.17315184  0.05598613  0.36838856     1.65800
Fe244      Fe  0.19816733  0.04100212  0.27608556     1.73200
Fe245      Fe  0.26530382  0.03317004  0.34480095     1.54400
O246        O  0.26813657  0.08594188  0.37214986    -0.81800
O247        O  0.24036740  0.99859724  0.26164643    -0.80100
O248        O  0.21124315  0.08989714  0.40177657    -0.84300
O249        O  0.18452005  0.00740882  0.39950158    -0.79200
O250        O  0.28834666  0.05925714  0.29375460    -0.81000
O251        O  0.15724194  0.99924241  0.28520350    -0.83700
C252        C  0.21624187  0.99288910  0.41026328     0.97100
C253        C  0.24527153  0.10274862  0.39540561     1.04500
O254        O  0.21195709  0.04227861  0.33020258    -1.12700
O255        O  0.15709228  0.08511021  0.28041762    -0.75100
O256        O  0.16041486  0.10632614  0.34080465    -0.78600
O257        O  0.24873225  0.00352885  0.39590433    -0.79300
C258        C  0.15342082  0.11179063  0.30554382     0.96000
O259        O  0.13018538  0.02429090  0.33824479    -0.77300
O260        O  0.23623708  0.08380443  0.26696434    -0.82400
C261        C  0.26335246  0.97729886  0.28106003     0.98600
C262        C  0.27215885  0.07928450  0.26736156     1.04500
O263        O  0.26581654  0.98078543  0.31740889    -0.78100
C264        C  0.12924718  0.00154913  0.30887911     1.02800
Fe265      Fe  0.09509980  0.08838743  0.63728985     1.65800
Fe266      Fe  0.07832148  0.17960750  0.66287048     1.73200
Fe267      Fe  0.06800065  0.11061566  0.72884457     1.54400
O268        O  0.03875730  0.06028756  0.71059864    -0.81800
O269        O  0.12064163  0.18880903  0.70164351    -0.80100
O270        O  0.04656068  0.05640246  0.64660183    -0.84300
O271        O  0.12782724  0.05509007  0.67606509    -0.79200
O272        O  0.01572237  0.13769251  0.72739383    -0.81000
O273        O  0.12124470  0.17554679  0.62080666    -0.83700
C274        C  0.13781457  0.05985015  0.71132359     0.97100
C275        C  0.02986432  0.04622915  0.67751963     1.04500
O276        O  0.07962715  0.12562206  0.67618904    -1.12700
O277        O  0.03685382  0.17007131  0.62243150    -0.75100
O278        O  0.06383829  0.11864180  0.59411327    -0.78600
O279        O  0.11990394  0.08271773  0.73369155    -0.79300
C280        C  0.04013018  0.14711801  0.59395551     0.96000
O281        O  0.14564869  0.11722079  0.62643015    -0.77300
O282        O  0.03617900  0.19369202  0.70471880    -0.82400
C283        C  0.11488517  0.18777314  0.73760155     0.98600
C284        C  0.01344233  0.17403312  0.72604211     1.04500
O285        O  0.09395712  0.16131867  0.75288839    -0.78100
C286        C  0.14935141  0.15227341  0.61756192     1.02800
Fe287      Fe  0.17063490  0.39165033  0.86563163     1.65800
Fe288      Fe  0.19844158  0.40790277  0.77413440     1.73200
Fe289      Fe  0.26287566  0.41798001  0.84524030     1.54400
O290        O  0.24412301  0.44714342  0.89551477    -0.81800
O291        O  0.23826085  0.36652962  0.76480094    -0.80100
O292        O  0.18013955  0.44010914  0.89829833    -0.84300
O293        O  0.20829496  0.35803642  0.89921806    -0.79200
O294        O  0.26253021  0.47025166  0.81811143    -0.81000
O295        O  0.15774743  0.36349181  0.77677422    -0.83700
C296        C  0.24320094  0.34724575  0.89434745     0.97100
C297        C  0.21110350  0.45640839  0.90922722     1.04500
O298        O  0.21044187  0.40658355  0.82877478    -1.12700
O299        O  0.15674210  0.44851792  0.78268185    -0.75100
O300        O  0.12843428  0.42307349  0.83485193    -0.78600
O301        O  0.26641176  0.36563357  0.87268520    -0.79300
C302        C  0.12830756  0.44597161  0.80576428     0.96000
O303        O  0.15913706  0.34140496  0.83666115    -0.77300
O304        O  0.23972706  0.45118630  0.76148233    -0.82400
C305        C  0.27412100  0.37214607  0.76778065     0.98600
C306        C  0.26129278  0.47333123  0.78170388     1.04500
O307        O  0.28830140  0.39260900  0.79520301    -0.78100
C308        C  0.15350550  0.33633497  0.80103386     1.02800
Fe309      Fe  0.39907807  0.31916767  0.56133593     1.65800
Fe310      Fe  0.30699404  0.29391168  0.54720028     1.73200
Fe311      Fe  0.37533820  0.22798861  0.53318845     1.54400
O312        O  0.42578716  0.24630373  0.50396244    -0.81800
O313        O  0.30071583  0.25342624  0.58839302    -0.80100
O314        O  0.42976231  0.31015134  0.51182703    -0.84300
O315        O  0.43234930  0.27952196  0.59270178    -0.79200
O316        O  0.34728561  0.23104072  0.48132048    -0.81000
O317        O  0.31168824  0.33351781  0.59242714    -0.83700
C318        C  0.42700816  0.24448250  0.60288478     0.97100
C319        C  0.43984704  0.27931628  0.49493309     1.04500
O320        O  0.36100854  0.28074954  0.54610735    -1.12700
O321        O  0.31505971  0.33635457  0.50715216    -0.75100
O322        O  0.36882219  0.36291977  0.53156981    -0.78600
O323        O  0.40369057  0.22222904  0.58507753    -0.79300
C324        C  0.33936390  0.36394971  0.50909472     0.96000
O325        O  0.37199862  0.32995918  0.61287109    -0.77300
O326        O  0.29177857  0.25366690  0.50323764    -0.82400
C327        C  0.29797865  0.21863524  0.57860187     0.98600
C328        C  0.31082370  0.23252960  0.47971350     1.04500
O329        O  0.32427462  0.20304806  0.55787830    -0.78100
C330        C  0.33673174  0.33623040  0.61909445     1.02800
Fe331      Fe  0.67552006  0.05582817  0.09347179     1.65800
Fe332      Fe  0.70047714  0.04256260  0.18544064     1.73200
Fe333      Fe  0.76737732  0.03229522  0.11660499     1.54400
O334        O  0.75039674  0.00199326  0.06622992    -0.81800
O335        O  0.73888237  0.08569257  0.19332290    -0.80100
O336        O  0.68626252  0.00690494  0.06281133    -0.84300
O337        O  0.71356868  0.08888309  0.05960016    -0.79200
O338        O  0.76732364  0.98055235  0.14508536    -0.81000
O339        O  0.65840012  0.08536198  0.18030265    -0.83700
C340        C  0.74789367  0.10117252  0.06535675     0.97100
C341        C  0.71773484  0.99185079  0.05207487     1.04500
O342        O  0.71426357  0.04241233  0.13137878    -1.12700
O343        O  0.65995914  0.00030351  0.17727492    -0.75100
O344        O  0.63264851  0.02456077  0.12422699    -0.78600
O345        O  0.77076149  0.08428174  0.08833077    -0.79300
C346        C  0.63194817  0.00209455  0.15369422     0.96000
O347        O  0.66330672  0.10669914  0.12050208    -0.77300
O348        O  0.74247889  0.00096045  0.20050234    -0.82400
C349        C  0.77486622  0.08062927  0.19252871     0.98600
C350        C  0.76466986  0.97841783  0.18154139     1.04500
O351        O  0.79062951  0.05941105  0.16670914    -0.78100
C352        C  0.65410979  0.11185488  0.15531159     1.02800
Fe353      Fe  0.89481727  0.13457670  0.39947933     1.65800
Fe354      Fe  0.80302858  0.16065842  0.41492322     1.73200
Fe355      Fe  0.87369318  0.22635085  0.42592380     1.54400
O356        O  0.92384532  0.20756803  0.45551219    -0.81800
O357        O  0.79334469  0.20121279  0.37442465    -0.80100
O358        O  0.92504708  0.14361697  0.44873807    -0.84300
O359        O  0.92946118  0.17292223  0.36747165    -0.79200
O360        O  0.84545905  0.22576867  0.47799766    -0.81000
O361        O  0.80722176  0.12134306  0.36918831    -0.83700
C362        C  0.92463329  0.20755844  0.35606199     0.97100
C363        C  0.93670965  0.17428204  0.46494166     1.04500
O364        O  0.85746106  0.17375734  0.41417769    -1.12700
O365        O  0.81121884  0.11778368  0.45483549    -0.75100
O366        O  0.86389067  0.09107991  0.42911519    -0.78600
O367        O  0.90203771  0.23052947  0.37360125    -0.79300
C368        C  0.83458088  0.08976731  0.45175010     0.96000
O369        O  0.86777449  0.12385772  0.34861206    -0.77300
O370        O  0.78948747  0.20101756  0.45888120    -0.82400
C371        C  0.79692198  0.23715232  0.37927525     0.98600
C372        C  0.80905242  0.22337258  0.48089858     1.04500
O373        O  0.82408814  0.25153060  0.39991905    -0.78100
C374        C  0.83243801  0.11794926  0.34259797     1.02800
Fe375      Fe  0.59426099  0.36149637  0.31791915     1.65800
Fe376      Fe  0.57887878  0.26949455  0.29211066     1.73200
Fe377      Fe  0.56812058  0.33856790  0.22611352     1.54400
O378        O  0.54014733  0.38984087  0.24377629    -0.81800
O379        O  0.62001159  0.26109037  0.25168372    -0.80100
O380        O  0.54560807  0.39258596  0.30790700    -0.84300
O381        O  0.62734969  0.39413591  0.27868315    -0.79200
O382        O  0.51548652  0.31199243  0.22838158    -0.81000
O383        O  0.62419325  0.27346949  0.33169709    -0.83700
C384        C  0.63881135  0.38790144  0.24408210     0.97100
C385        C  0.53017501  0.40348413  0.27671150     1.04500
O386        O  0.57954405  0.32360639  0.27905324    -1.12700
O387        O  0.53866002  0.27817023  0.33444621    -0.75100
O388        O  0.56307067  0.33170800  0.36134435    -0.78600
O389        O  0.62099347  0.36505342  0.22143276    -0.79300
C390        C  0.54047170  0.30222535  0.36218991     0.96000
O391        O  0.64477148  0.33407362  0.33014647    -0.77300
O392        O  0.53471101  0.25588285  0.25168631    -0.82400
C393        C  0.61086266  0.25994777  0.21659083     0.98600
C394        C  0.51244178  0.27562322  0.23002200     1.04500
O395        O  0.59150953  0.28720701  0.20129090    -0.78100
C396        C  0.65059026  0.29875431  0.33614840     1.02800
Fe397      Fe  0.12729993  0.63307546  0.06299176     1.65800
Fe398      Fe  0.21955624  0.65858269  0.05085268     1.73200
Fe399      Fe  0.15129664  0.72459655  0.03759651     1.54400
O400        O  0.10149210  0.70679172  0.00695993    -0.81800
O401        O  0.22550949  0.69791227  0.09338531    -0.80100
O402        O  0.09811612  0.64285408  0.01322015    -0.84300
O403        O  0.09320642  0.67208951  0.09501557    -0.79200
O404        O  0.18045486  0.72286348  0.98631037    -0.81000
O405        O  0.21379741  0.61827064  0.09505906    -0.83700
C406        C  0.09879232  0.70689098  0.10621692     0.97100
C407        C  0.08794221  0.67379712  0.99694895     1.04500
O408        O  0.16557022  0.67175076  0.04936988    -1.12700
O409        O  0.21225145  0.61675388  0.00943689    -0.75100
O410        O  0.15835994  0.58968057  0.03281311    -0.78600
O411        O  0.12215144  0.72925565  0.08893702    -0.79300
C412        C  0.18820053  0.58889815  0.01069593     0.96000
O413        O  0.15306375  0.62179346  0.11450558    -0.77300
O414        O  0.23565584  0.69992092  0.00839778    -0.82400
C415        C  0.22666140  0.73344202  0.08634036     0.98600
C416        C  0.21694000  0.72143469  0.98514415     1.04500
O417        O  0.20129014  0.74890272  0.06456206    -0.78100
C418        C  0.18812895  0.61543765  0.12115996     1.02800
Fe419      Fe  0.43226877  0.86068201  0.13689808     1.65800
Fe420      Fe  0.44887038  0.76896202  0.16139833     1.73200
Fe421      Fe  0.45926497  0.83815832  0.22834467     1.54400
O422        O  0.48955607  0.88808333  0.21019044    -0.81800
O423        O  0.40716197  0.75922860  0.20069823    -0.80100
O424        O  0.48120821  0.89217251  0.14637932    -0.84300
O425        O  0.39949268  0.89417732  0.17583578    -0.79200
O426        O  0.51113825  0.80982058  0.22766196    -0.81000
O427        O  0.40500648  0.77337584  0.12050672    -0.83700
C428        C  0.38919350  0.88942090  0.21095857     0.97100
C429        C  0.49843439  0.90216379  0.17714276     1.04500
O430        O  0.44773196  0.82307762  0.17543331    -1.12700
O431        O  0.48961032  0.77857978  0.11982268    -0.75100
O432        O  0.46277181  0.83058731  0.09294225    -0.78600
O433        O  0.40737935  0.86689182  0.23333472    -0.79300
C434        C  0.48590725  0.80172142  0.09167246     0.96000
O435        O  0.38160259  0.83224895  0.12637907    -0.77300
O436        O  0.49147194  0.75430943  0.20266393    -0.82400
C437        C  0.41230723  0.76112317  0.23670829     0.98600
C438        C  0.51343222  0.77340698  0.22542821     1.04500
O439        O  0.43265711  0.78801268  0.25210410    -0.78100
C440        C  0.37698403  0.79688113  0.11916814     1.02800
Fe441      Fe  0.35597963  0.55800952  0.36230477     1.65800
Fe442      Fe  0.32739240  0.54110823  0.27090525     1.73200
Fe443      Fe  0.26360611  0.53138467  0.34296031     1.54400
O444        O  0.28267490  0.50267449  0.39274768    -0.81800
O445        O  0.28686752  0.58190428  0.26127726    -0.80100
O446        O  0.34657516  0.51007133  0.39522554    -0.84300
O447        O  0.31836128  0.59225638  0.39569530    -0.79200
O448        O  0.26407011  0.47902202  0.31555484    -0.81000
O449        O  0.36767767  0.58591982  0.27300910    -0.83700
C450        C  0.28328626  0.60277360  0.39151406     0.97100
C451        C  0.31573609  0.49367935  0.40618766     1.04500
O452        O  0.31583047  0.54298737  0.32575134    -1.12700
O453        O  0.36955060  0.50082425  0.27933103    -0.75100
O454        O  0.39811522  0.52609225  0.33154509    -0.78600
O455        O  0.25972568  0.58388501  0.37057107    -0.79300
C456        C  0.39809258  0.50321273  0.30225703     0.96000
O457        O  0.36788030  0.60769810  0.33326860    -0.77300
O458        O  0.28642896  0.49747666  0.25866116    -0.82400
C459        C  0.25107454  0.57726042  0.26656827     0.98600
C460        C  0.26507330  0.47553357  0.27916049     1.04500
O461        O  0.23769828  0.55658502  0.29398798    -0.78100
C462        C  0.37308339  0.61272809  0.29762598     1.02800
Fe463      Fe  0.63393664  0.81664465  0.89698300     1.65800
Fe464      Fe  0.72476526  0.78893451  0.91449622     1.73200
Fe465      Fe  0.65305759  0.72478587  0.92439528     1.54400
O466        O  0.60262982  0.74461475  0.95292564    -0.81800
O467        O  0.73427490  0.74873017  0.87334838    -0.80100
O468        O  0.60138858  0.80841205  0.94516691    -0.84300
O469        O  0.59983300  0.77859110  0.86364558    -0.79200
O470        O  0.68053696  0.72502668  0.97695853    -0.81000
O471        O  0.72252617  0.82916731  0.86981627    -0.83700
C472        C  0.60417355  0.74345795  0.85321634     0.97100
C473        C  0.58923936  0.77803487  0.96139960     1.04500
O474        O  0.67016282  0.77692615  0.91272384    -1.12700
O475        O  0.71590264  0.83096582  0.95495881    -0.75100
O476        O  0.66505216  0.85959106  0.92791452    -0.78600
O477        O  0.62563378  0.72052318  0.87185520    -0.79300
C478        C  0.69371458  0.85979825  0.95143280     0.96000
O479        O  0.66296478  0.82663097  0.84698854    -0.77300
O480        O  0.73712419  0.74797322  0.95791675    -0.82400
C481        C  0.73027617  0.71293618  0.87855454     0.98600
C482        C  0.71699179  0.72631577  0.97996745     1.04500
O483        O  0.70275873  0.69906623  0.89903853    -0.78100
C484        C  0.69849895  0.83260457  0.84228979     1.02800
Fe485      Fe  0.85494638  0.89080684  0.59166480     1.65800
Fe486      Fe  0.82987889  0.90674463  0.68304296     1.73200
Fe487      Fe  0.76313182  0.91479082  0.61444790     1.54400
O488        O  0.78022893  0.94519302  0.56401469    -0.81800
O489        O  0.79326686  0.86238813  0.69074243    -0.80100
O490        O  0.84418044  0.93903581  0.56031794    -0.84300
O491        O  0.81709150  0.85626197  0.55825239    -0.79200
O492        O  0.76309127  0.96684624  0.64255736    -0.81000
O493        O  0.87363280  0.86569969  0.67834596    -0.83700
C494        C  0.78237366  0.84473836  0.56361168     0.97100
C495        C  0.81313416  0.95518969  0.55012583     1.04500
O496        O  0.81612206  0.90520938  0.62910248    -1.12700
O497        O  0.86846418  0.95003632  0.67361245    -0.75100
O498        O  0.89738499  0.92340401  0.62227056    -0.78600
O499        O  0.75959006  0.86256187  0.58613675    -0.79300
C500        C  0.89709127  0.94733665  0.65082651     0.96000
O501        O  0.86697502  0.84091771  0.62005905    -0.77300
O502        O  0.78637434  0.94708316  0.69841727    -0.82400
C503        C  0.75734269  0.86742208  0.69121979     0.98600
C504        C  0.76430285  0.96916974  0.67904298     1.04500
O505        O  0.74072466  0.88778750  0.66528851    -0.78100
C506        C  0.87675360  0.83756152  0.65486870     1.02800
Fe507      Fe  0.93468744  0.59078267  0.82054511     1.65800
Fe508      Fe  0.94892915  0.68242565  0.79401497     1.73200
Fe509      Fe  0.96037955  0.61237625  0.72851123     1.54400
O510        O  0.98882751  0.56156906  0.74640637    -0.81800
O511        O  0.90721083  0.68816799  0.75410821    -0.80100
O512        O  0.98347270  0.55998783  0.81056148    -0.84300
O513        O  0.90167116  0.55695157  0.78207812    -0.79200
O514        O  0.01277609  0.63981356  0.72988591    -0.81000
O515        O  0.90383517  0.67878834  0.83392662    -0.83700
C516        C  0.89010322  0.56244530  0.74746802     0.97100
C517        C  0.99883216  0.54845875  0.77942740     1.04500
O518        O  0.94923196  0.62807813  0.78145926    -1.12700
O519        O  0.98943133  0.67558784  0.83632640    -0.75100
O520        O  0.96576880  0.62176824  0.86313262    -0.78600
O521        O  0.90769115  0.58514709  0.72462067    -0.79300
C522        C  0.98790265  0.65160066  0.86398505     0.96000
O523        O  0.88401319  0.61795526  0.83257189    -0.77300
O524        O  0.99276143  0.69601071  0.75299554    -0.82400
C525        C  0.91657720  0.68998563  0.71919571     0.98600
C526        C  0.01532924  0.67630000  0.73135898     1.04500
O527        O  0.93635544  0.66312235  0.70354318    -0.78100
C528        C  0.87772734  0.65325739  0.83829926     1.02800
C529        C  0.90380169  0.79687897  0.70692210    -0.21500
C530        C  0.89113180  0.79987997  0.66872608    -0.09500
C531        C  0.88951967  0.76610395  0.64555805     0.29400
C532        C  0.89894125  0.73003411  0.66121150    -0.21500
C533        C  0.90944417  0.72720949  0.70009371    -0.09500
C534        C  0.91283377  0.76120859  0.72246312     0.29400
F535        F  0.92492498  0.76007909  0.75977021    -0.20000
H536        H  0.90589300  0.82214719  0.72533035     0.17700
H537        H  0.89662405  0.70431986  0.64347836     0.17700
F538        F  0.87746206  0.76755391  0.60831137    -0.20000
C539        C  0.68915145  0.86200820  0.77679714    -0.21500
C540        C  0.71231383  0.84157286  0.80309331    -0.09500
C541        C  0.74714098  0.82573906  0.79028499     0.29400
C542        C  0.75890810  0.83080312  0.75231634    -0.21500
C543        C  0.73738941  0.85347926  0.72640424    -0.09500
C544        C  0.70183178  0.86852899  0.73882051     0.29400
F545        F  0.68029764  0.89086496  0.71511604    -0.20000
H546        H  0.66170812  0.87374676  0.78598620     0.17700
H547        H  0.78631087  0.81841743  0.74385820     0.17700
F548        F  0.76975668  0.80480736  0.81431385    -0.20000
C549        C  0.78159014  0.70223706  0.83050371    -0.21500
C550        C  0.76201703  0.68895644  0.86348495    -0.09500
C551        C  0.77978875  0.66102124  0.88684627     0.29400
C552        C  0.81752460  0.64882244  0.87852253    -0.21500
C553        C  0.83806322  0.66511389  0.84752328    -0.09500
C554        C  0.81931297  0.69092607  0.82287370     0.29400
F555        F  0.83761690  0.70556970  0.79148134    -0.20000
H556        H  0.76854678  0.72368966  0.81202283     0.17700
H557        H  0.83130797  0.62803382  0.89720136     0.17700
F558        F  0.76213174  0.64805251  0.91933434    -0.20000
C559        C  0.51791721  0.82493122  0.03104623    -0.21500
C560        C  0.50930474  0.79455378  0.05625474    -0.09500
C561        C  0.52391495  0.75751356  0.04758397     0.29400
C562        C  0.54862925  0.75184386  0.01593877    -0.21500
C563        C  0.55917584  0.78279933  0.99203165    -0.09500
C564        C  0.54237469  0.81930702  0.99934962     0.29400
F565        F  0.55002860  0.85010308  0.97641572    -0.20000
H566        H  0.50658480  0.85351177  0.03647321     0.17700
H567        H  0.56027259  0.72335155  0.01078576     0.17700
F568        F  0.51432208  0.72662189  0.06963808    -0.20000
C569        C  0.36939269  0.70441142  0.24071823    -0.21500
C570        C  0.39739170  0.72777820  0.25881483    -0.09500
C571        C  0.41662763  0.71338821  0.29152051     0.29400
C572        C  0.40865951  0.67582643  0.30460787    -0.21500
C573        C  0.38294600  0.65176224  0.28412095    -0.09500
C574        C  0.36333194  0.66655964  0.25218341     0.29400
F575        F  0.33832958  0.64428900  0.23173009    -0.20000
H576        H  0.35384268  0.71461572  0.21569619     0.17700
H577        H  0.42366463  0.66498690  0.32972474     0.17700
F578        F  0.44475608  0.73436425  0.30913631    -0.20000
C579        C  0.01451902  0.63060771  0.92759921    -0.21500
C580        C  0.01245211  0.65871316  0.89864500    -0.09500
C581        C  0.03385672  0.69326220  0.90352858     0.29400
C582        C  0.05716223  0.69882365  0.93623469    -0.21500
C583        C  0.05991508  0.67013477  0.96459351    -0.09500
C584        C  0.03780736  0.63606748  0.96004309     0.29400
F585        F  0.03870956  0.60760834  0.98686447    -0.20000
H586        H  0.99836103  0.60389904  0.92503410     0.17700
H587        H  0.07393397  0.72515851  0.93877953     0.17700
F588        F  0.03265025  0.72168596  0.87670330    -0.20000
C589        C  0.28981985  0.73215950  0.11940456    -0.21500
C590        C  0.26188339  0.75403911  0.09971609    -0.09500
C591        C  0.27180245  0.79153258  0.08765554     0.29400
C592        C  0.30938018  0.80575450  0.09395609    -0.21500
C593        C  0.33771345  0.78231269  0.11109642    -0.09500
C594        C  0.32726885  0.74552930  0.12410469     0.29400
F595        F  0.35323380  0.72224333  0.14165998    -0.20000
H596        H  0.28350986  0.70329827  0.12957245     0.17700
H597        H  0.31664696  0.83464746  0.08451608     0.17700
F598        F  0.24588688  0.81381971  0.06880258    -0.20000
C599        C  0.22518846  0.63302259  0.17917095    -0.21500
C600        C  0.19970951  0.60733589  0.16101665    -0.09500
C601        C  0.18403615  0.57642243  0.18210002     0.29400
C602        C  0.19759313  0.56877328  0.21944795    -0.21500
C603        C  0.22583189  0.59273026  0.23627872    -0.09500
C604        C  0.23745045  0.62634752  0.21680222     0.29400
F605        F  0.26252114  0.65154473  0.23344702    -0.20000
H606        H  0.23586184  0.65819257  0.16401296     0.17700
H607        H  0.18838113  0.54258434  0.23382716     0.17700
F608        F  0.15770554  0.55234471  0.16570297    -0.20000
C609        C  0.46668482  0.43050839  0.25514922    -0.21500
C610        C  0.49857868  0.43220475  0.28001245    -0.09500
C611        C  0.49782008  0.45856535  0.31115406     0.29400
C612        C  0.46539161  0.48155562  0.31795801    -0.21500
C613        C  0.43274616  0.47894561  0.29404328    -0.09500
C614        C  0.43405504  0.45338973  0.26203282     0.29400
F615        F  0.40358970  0.44970592  0.23766163    -0.20000
H616        H  0.46631217  0.41023685  0.23126090     0.17700
H617        H  0.46578996  0.50118457  0.34236160     0.17700
F618        F  0.52844693  0.46196702  0.33537322    -0.20000
C619        C  0.85724364  0.02733703  0.47973399    -0.21500
C620        C  0.82755624  0.05428034  0.47515792    -0.09500
C621        C  0.79164674  0.04672577  0.49315196     0.29400
C622        C  0.78640889  0.01375706  0.51618197    -0.21500
C623        C  0.81671491  0.98759050  0.52189686    -0.09500
C624        C  0.85211148  0.99458899  0.50263792     0.29400
F625        F  0.88236862  0.97011931  0.50621842    -0.20000
H626        H  0.88503494  0.03193589  0.46611289     0.17700
H627        H  0.75889201  0.00929751  0.53038039     0.17700
F628        F  0.76147638  0.07110532  0.48860146    -0.20000
C629        C  0.74400731  0.24445428  0.33234326    -0.21500
C630        C  0.76532080  0.26069402  0.36293439    -0.09500
C631        C  0.74984958  0.29265875  0.38275690     0.29400
C632        C  0.71255365  0.30581258  0.37371135    -0.21500
C633        C  0.69000197  0.28632631  0.34591782    -0.09500
C634        C  0.70651267  0.25616863  0.32468893     0.29400
F635        F  0.68630523  0.23776701  0.29648182    -0.20000
H636        H  0.75554420  0.22071715  0.31577490     0.17700
H637        H  0.70061956  0.32995910  0.38958781     0.17700
F638        F  0.76939949  0.30932955  0.41243277    -0.20000
C639        C  0.55989516  0.93291928  0.20139457    -0.21500
C640        C  0.53080810  0.93042720  0.17325970    -0.09500
C641        C  0.53474133  0.95289514  0.13949395     0.29400
C642        C  0.56733232  0.97609442  0.13367313    -0.21500
C643        C  0.59707963  0.97769917  0.16110547    -0.09500
C644        C  0.59269120  0.95613858  0.19550293     0.29400
F645        F  0.62009217  0.95710597  0.22349072    -0.20000
H646        H  0.55785531  0.91597312  0.22754256     0.17700
H647        H  0.56940125  0.99252032  0.10720227     0.17700
F648        F  0.50717828  0.95239239  0.11166205    -0.20000
C649        C  0.74080394  0.92953062  0.02335781    -0.21500
C650        C  0.71506884  0.96058866  0.02274480    -0.09500
C651        C  0.68389067  0.95941300  0.99657812     0.29400
C652        C  0.67750508  0.92698945  0.97322897    -0.21500
C653        C  0.70198846  0.89489676  0.97520944    -0.09500
C654        C  0.73444288  0.89698690  0.99998689     0.29400
F655        F  0.75978451  0.86735963  0.00241547    -0.20000
H656        H  0.76497203  0.92968157  0.04317872     0.17700
H657        H  0.65286497  0.92684462  0.95401479     0.17700
F658        F  0.65914804  0.98953694  0.99384286    -0.20000
C659        C  0.77680550  0.12265310  0.25000957    -0.21500
C660        C  0.79630771  0.09621482  0.22608910    -0.09500
C661        C  0.83017560  0.07880820  0.24001290     0.29400
C662        C  0.84238202  0.08603605  0.27806221    -0.21500
C663        C  0.82017301  0.10941072  0.30282443    -0.09500
C664        C  0.78777004  0.12818370  0.28813387     0.29400
F665        F  0.76626971  0.15168097  0.31082734    -0.20000
H666        H  0.75094487  0.13702555  0.24012693     0.17700
H667        H  0.86820156  0.07215856  0.28868820     0.17700
F668        F  0.84989966  0.05305265  0.21804466    -0.20000
C669        C  0.63388941  0.21996242  0.15991363    -0.21500
C670        C  0.61753640  0.22280244  0.19680470    -0.09500
C671        C  0.60934639  0.18876668  0.21750270     0.29400
C672        C  0.61988155  0.15292286  0.20299204    -0.21500
C673        C  0.63857373  0.14982644  0.16733140    -0.09500
C674        C  0.64447927  0.18364796  0.14514964     0.29400
F675        F  0.66228479  0.18197235  0.11023805    -0.20000
H676        H  0.64011157  0.24576994  0.14345679     0.17700
H677        H  0.61418790  0.12754439  0.22029887     0.17700
F678        F  0.59172060  0.19020570  0.25254132    -0.20000
C679        C  0.30091786  0.39879968  0.45872475    -0.21500
C680        C  0.33252998  0.39843287  0.48437276    -0.09500
C681        C  0.35697371  0.43102375  0.48561065     0.29400
C682        C  0.35046639  0.46232874  0.46102345    -0.21500
C683        C  0.31931075  0.46224692  0.43496806    -0.09500
C684        C  0.29427793  0.43025060  0.43439764     0.29400
F685        F  0.26454128  0.42838329  0.40895441    -0.20000
H686        H  0.28145810  0.37432656  0.45689503     0.17700
H687        H  0.37020682  0.48663781  0.46207097     0.17700
F688        F  0.38744629  0.43268876  0.51016748    -0.20000
C689        C  0.51721110  0.32056881  0.42855683    -0.21500
C690        C  0.51573325  0.29517374  0.39686504    -0.09500
C691        C  0.49062710  0.26289755  0.39900977     0.29400
C692        C  0.46738880  0.25690084  0.43165455    -0.21500
C693        C  0.46817233  0.28293913  0.46276368    -0.09500
C694        C  0.49378698  0.31468845  0.46101110     0.29400
F695        F  0.49624104  0.34027450  0.49070775    -0.20000
H696        H  0.53634415  0.34536005  0.42820066     0.17700
H697        H  0.44771547  0.23252374  0.43196912     0.17700
F698        F  0.48782592  0.23728038  0.36937533    -0.20000
C699        C  0.17081642  0.52190005  0.98798037    -0.21500
C700        C  0.19551461  0.55414504  0.98593893    -0.09500
C701        C  0.22719730  0.55250535  0.96013840     0.29400
C702        C  0.23323002  0.51990043  0.93675508    -0.21500
C703        C  0.20775250  0.48833247  0.93799088    -0.09500
C704        C  0.17669448  0.48950700  0.96435066     0.29400
F705        F  0.15180127  0.45929697  0.96729252    -0.20000
H706        H  0.14652547  0.52179450  0.00768498     0.17700
H707        H  0.25707366  0.52002471  0.91649360     0.17700
F708        F  0.25202934  0.58269118  0.95662362    -0.20000
C709        C  0.03207730  0.49729579  0.81733671    -0.21500
C710        C  0.02986337  0.51914218  0.78316548    -0.09500
C711        C  0.05934446  0.51509542  0.75553691     0.29400
C712        C  0.09095824  0.49104708  0.76294859    -0.21500
C713        C  0.09378022  0.47025059  0.79784917    -0.09500
C714        C  0.06340358  0.47316590  0.82464449     0.29400
F715        F  0.06425812  0.45362510  0.85852641    -0.20000
H716        H  0.00972095  0.49948101  0.83911337     0.17700
H717        H  0.11356005  0.48914983  0.74141091     0.17700
F718        F  0.05861798  0.53558758  0.72221340    -0.17600
C719        C  0.28203589  0.32773233  0.71250150    -0.21500
C720        C  0.29767731  0.35773783  0.73508448    -0.09500
C721        C  0.32900316  0.37909442  0.72018964     0.29400
C722        C  0.34250621  0.37175560  0.68251446    -0.21500
C723        C  0.32397605  0.34415817  0.65898522    -0.09500
C724        C  0.29417884  0.32168178  0.67469562     0.29400
F725        F  0.27643326  0.29389435  0.65337628    -0.20000
H726        H  0.25836154  0.31039718  0.72331905     0.17700
H727        H  0.36613976  0.38881129  0.67108337     0.17700
F728        F  0.34454427  0.40877023  0.74068923    -0.20000
C729        C  0.00030740  0.19182990  0.55338601    -0.21500
C730        C  0.01584402  0.15474298  0.55943610    -0.09500
C731        C  0.00712127  0.12542934  0.53277851     0.29400
C732        C  0.98259178  0.13275892  0.50169825    -0.21500
C733        C  0.96595227  0.16945711  0.49614825    -0.09500
C734        C  0.97577089  0.19925543  0.52206224     0.29400
F735        F  0.96089923  0.23516114  0.51797609    -0.20000
H736        H  0.00689952  0.21519211  0.57320748     0.17700
H737        H  0.97598026  0.10904896  0.48231225     0.17700
F738        F  0.02090749  0.08916726  0.53751133    -0.20000
C739        C  0.96465201  0.02187622  0.69667209    -0.21500
C740        C  0.99780516  0.01804203  0.67380040    -0.09500
C741        C  0.99801740  0.99015794  0.64406263     0.29400
C742        C  0.96536906  0.96737038  0.63682868    -0.21500
C743        C  0.93161435  0.97192094  0.65883885    -0.09500
C744        C  0.93179982  0.99935401  0.68926993     0.29400
F745        F  0.90006601  0.00524184  0.71151692    -0.20000
H746        H  0.96356321  0.04353008  0.71929409     0.17700
H747        H  0.96652672  0.94627244  0.61371434     0.17700
F748        F  0.02983460  0.98501622  0.62175277    -0.20000
C749        C  0.15587634  0.24616131  0.74061407    -0.21500
C750        C  0.12961547  0.22155153  0.75960012    -0.09500
C751        C  0.11235933  0.23447294  0.79415053     0.29400
C752        C  0.12026557  0.27187306  0.80810280    -0.21500
C753        C  0.14418091  0.29714734  0.78700384    -0.09500
C754        C  0.16223303  0.28363582  0.75341521     0.29400
F755        F  0.18615132  0.30673390  0.73269461    -0.20000
H756        H  0.16998030  0.23722917  0.71412093     0.17700
H757        H  0.10662355  0.28159447  0.83453965     0.17700
F758        F  0.08635791  0.21208734  0.81312850    -0.20000
C759        C  0.19165147  0.20684601  0.59897274    -0.21500
C760        C  0.18735385  0.16709076  0.60421620    -0.09500
C761        C  0.22005749  0.14318249  0.59933245     0.29400
C762        C  0.25634561  0.15939405  0.59047104    -0.21500
C763        C  0.26054776  0.19951807  0.58708012    -0.09500
C764        C  0.22737747  0.22287838  0.59056153     0.29400
F765        F  0.22902576  0.26166861  0.58526664    -0.20000
H766        H  0.16730034  0.22609362  0.60211691     0.17700
H767        H  0.28115016  0.14078374  0.58713474     0.17700
F768        F  0.21722897  0.10437417  0.60366037    -0.20000
C769        C  0.34454055  0.90495566  0.26610496    -0.21500
C770        C  0.35481733  0.91043991  0.22713148    -0.09500
C771        C  0.33158647  0.93527376  0.20481254     0.29400
C772        C  0.30032063  0.95515284  0.22174360    -0.21500
C773        C  0.29121184  0.95069536  0.26120351    -0.09500
C774        C  0.31346194  0.92454435  0.28288245     0.29400
F775        F  0.30601666  0.91847400  0.32089518    -0.20000
H776        H  0.36104024  0.88572348  0.28421246     0.17700
H777        H  0.28419970  0.97525083  0.20424505     0.17700
F778        F  0.33933674  0.94101553  0.16683300    -0.20000
C779        C  0.29499141  0.15493693  0.40385596    -0.21500
C780        C  0.25942717  0.13865643  0.41518999    -0.09500
C781        C  0.23845371  0.15733290  0.44476847     0.29400
C782        C  0.25390527  0.18997759  0.46366122    -0.21500
C783        C  0.29050672  0.20475954  0.45358306    -0.09500
C784        C  0.31033937  0.18734241  0.42263699     0.29400
F785        F  0.34540134  0.20078152  0.41126000    -0.20000
H786        H  0.31163620  0.14210891  0.38068172     0.17700
H787        H  0.23813473  0.20232494  0.48771267     0.17700
F788        F  0.20377511  0.14333047  0.45657374    -0.20000
C789        C  0.93850454  0.25981529  0.30777573    -0.21500
C790        C  0.94563163  0.22215649  0.32103351    -0.09500
C791        C  0.97206068  0.19932280  0.29999237     0.29400
C792        C  0.99199961  0.21466699  0.26800827    -0.21500
C793        C  0.98626046  0.25307486  0.25620678    -0.09500
C794        C  0.95833996  0.27507609  0.27601810     0.29400
F795        F  0.95085359  0.31199194  0.26551832    -0.20000
H796        H  0.91783941  0.27806799  0.32245270     0.17700
H797        H  0.01337521  0.19697939  0.25365974     0.17700
F798        F  0.97953375  0.16251138  0.31076871    -0.20000
C799        C  0.17185254  0.17283167  0.27378090    -0.21500
C800        C  0.14371724  0.15122138  0.29322248    -0.09500
C801        C  0.10847455  0.16869369  0.30282224     0.29400
C802        C  0.10065062  0.20641319  0.29039915    -0.21500
C803        C  0.12784880  0.22696167  0.26824265    -0.09500
C804        C  0.16402777  0.21016209  0.26104947     0.29400
F805        F  0.19114009  0.22923295  0.24007025    -0.20000
H806        H  0.19990825  0.16052555  0.26817631     0.17700
H807        H  0.07234235  0.21845890  0.29564922     0.17700
F808        F  0.08105867  0.14868016  0.32244193    -0.20000
C809        C  0.22867791  0.45139922  0.22071308    -0.21500
C810        C  0.23726986  0.44832368  0.26037878    -0.09500
C811        C  0.21454105  0.42326008  0.28300362     0.29400
C812        C  0.18333038  0.40340610  0.26683727    -0.21500
C813        C  0.17353718  0.40760382  0.22763576    -0.09500
C814        C  0.19726099  0.43127596  0.20441217     0.29400
F815        F  0.18987459  0.43563203  0.16619057    -0.20000
H816        H  0.24529915  0.47065468  0.20252211     0.17700
H817        H  0.16630024  0.38509726  0.28561275     0.17700
F818        F  0.22144940  0.41875037  0.32131484    -0.20000
C819        C  0.23617158  0.29337080  0.94322630    -0.21500
C820        C  0.25788809  0.31195605  0.91427223    -0.09500
C821        C  0.29417102  0.29629484  0.90435695     0.29400
C822        C  0.30900320  0.26468585  0.92430667    -0.21500
C823        C  0.28835121  0.24741305  0.95461825    -0.09500
C824        C  0.25114134  0.26149399  0.96323940     0.29400
F825        F  0.23014991  0.24613698  0.99256854    -0.20000
H826        H  0.20803883  0.30424127  0.95129384     0.17700
H827        H  0.33758713  0.25455085  0.91683037     0.17700
F828        F  0.31602762  0.31183447  0.87575467    -0.20000
C829        C  0.20962408  0.25515828  0.13748520    -0.21500
C830        C  0.19238868  0.28280098  0.11389228    -0.09500
C831        C  0.21470896  0.30102283  0.08515427     0.29400
C832        C  0.25238897  0.28825598  0.07744728    -0.21500
C833        C  0.26846225  0.25819789  0.09924602    -0.09500
C834        C  0.24749587  0.24364693  0.13096228     0.29400
F835        F  0.26279363  0.21622085  0.15418411    -0.20000
H836        H  0.19358125  0.24228006  0.16106077     0.17700
H837        H  0.26774962  0.29980333  0.05275783     0.17700
F838        F  0.19933566  0.32934871  0.06310495    -0.20000
C839        C  0.32908638  0.07927689  0.22184403    -0.21500
C840        C  0.29307867  0.09422292  0.23302176    -0.09500
C841        C  0.27293739  0.11776936  0.20656666     0.29400
C842        C  0.28671604  0.12335381  0.16942552    -0.21500
C843        C  0.32160497  0.10725803  0.15766358    -0.09500
C844        C  0.34362848  0.08626243  0.18452434     0.29400
F845        F  0.37810182  0.07097419  0.17413450    -0.20000
H846        H  0.34500991  0.06074572  0.24117146     0.17700
H847        H  0.26985133  0.14056244  0.14964912     0.17700
F848        F  0.23853101  0.13398821  0.21553523    -0.20000
C849        C  0.44102346  0.26127465  0.14815230    -0.21500
C850        C  0.44755442  0.22271916  0.13708172    -0.09500
C851        C  0.47239851  0.20035117  0.16016042     0.29400
C852        C  0.49139906  0.21691732  0.19213989    -0.21500
C853        C  0.48601446  0.25601122  0.20201837    -0.09500
C854        C  0.45975807  0.27769954  0.17997650     0.29400
F855        F  0.45294694  0.31538569  0.18825124    -0.20000
H856        H  0.42159571  0.27930136  0.13176980     0.17700
H857        H  0.51169354  0.19949805  0.20813425     0.17700
F858        F  0.47908569  0.16275234  0.15152065    -0.20000
C859        C  0.83368305  0.51653311  0.75655163    -0.21500
C860        C  0.85476496  0.54205991  0.73287333    -0.09500
C861        C  0.84121947  0.54846637  0.69498379     0.29400
C862        C  0.80883274  0.52880733  0.68094594    -0.21500
C863        C  0.78884159  0.50188510  0.70378869    -0.09500
C864        C  0.80112987  0.49663471  0.74229973     0.29400
F865        F  0.78322955  0.47068731  0.76558153    -0.20000
H866        H  0.84288670  0.51121549  0.78592254     0.17700
H867        H  0.80036016  0.53362418  0.65125576     0.17700
F868        F  0.85973338  0.57302087  0.67068926    -0.20000
C869        C  0.81054990  0.26863687  0.53735036    -0.21500
C870        C  0.78929018  0.25081806  0.50765435    -0.09500
C871        C  0.75186396  0.26469000  0.49985326     0.29400
C872        C  0.73722456  0.29679301  0.52000724    -0.21500
C873        C  0.75943196  0.31584367  0.54836837    -0.09500
C874        C  0.79597108  0.30045126  0.55754196     0.29400
F875        F  0.81819523  0.31633784  0.58574690    -0.20000
H876        H  0.83932604  0.25869561  0.54417652     0.17700
H877        H  0.70886455  0.30740535  0.51255830     0.17700
F878        F  0.73029597  0.24892386  0.47109269    -0.20000
C879        C  0.81241386  0.18482449  0.03400589    -0.21500
C880        C  0.79125434  0.20146996  0.00380836    -0.09500
C881        C  0.75416024  0.18654800  0.99573191     0.29400
C882        C  0.73981532  0.15448675  0.01616844    -0.21500
C883        C  0.76210493  0.13649128  0.04491681    -0.09500
C884        C  0.79829427  0.15294155  0.05424143     0.29400
F885        F  0.82083424  0.13783365  0.08238529    -0.20000
H886        H  0.84098865  0.19555216  0.04101817     0.17700
H887        H  0.71169437  0.14301622  0.00858498     0.17700
F888        F  0.73275602  0.20117166  0.96647693    -0.20000
C889        C  0.01858263  0.31306333  0.02944637    -0.21500
C890        C  0.01612059  0.28902673  0.06193538    -0.09500
C891        C  0.98945235  0.25792447  0.06092859     0.29400
C892        C  0.96622209  0.25135164  0.02825320    -0.21500
C893        C  0.96843228  0.27587419  0.99615519    -0.09500
C894        C  0.99507270  0.30680060  0.99715800     0.29400
F895        F  0.99840041  0.33130427  0.96681964    -0.20000
H896        H  0.03865557  0.33709522  0.02898665     0.17700
H897        H  0.94541957  0.22793371  0.02867657     0.17700
F898        F  0.98497843  0.23426758  0.09178027    -0.20000
C899        C  0.84413656  0.37415207  0.78021604    -0.21500
C900        C  0.82991414  0.34125623  0.79914798    -0.09500
C901        C  0.80586061  0.31550033  0.77906695     0.29400
C902        C  0.79350507  0.32411838  0.74188767    -0.21500
C903        C  0.80426534  0.35893862  0.72422351    -0.09500
C904        C  0.83117639  0.38319272  0.74290986     0.29400
F905        F  0.84202994  0.41718674  0.72680002    -0.20000
H906        H  0.86360276  0.39374476  0.79504144     0.17700
H907        H  0.77291802  0.30494376  0.72802162     0.17700
F908        F  0.79344642  0.28236071  0.79578692    -0.20000
C909        C  0.93624350  0.18962789  0.80208646    -0.21500
C910        C  0.94846055  0.22445540  0.81941880    -0.09500
C911        C  0.97961629  0.24456008  0.80248481     0.29400
C912        C  0.99867175  0.22937564  0.77007497    -0.21500
C913        C  0.98749178  0.19371588  0.75398493    -0.09500
C914        C  0.95549224  0.17433737  0.76995645     0.29400
F915        F  0.94332914  0.14005539  0.75512489    -0.20000
H916        H  0.91195666  0.17370097  0.81375810     0.17700
H917        H  0.02369260  0.24454760  0.75893332     0.17700
F918        F  0.99282340  0.27809825  0.81803198    -0.20000
C919        C  0.44096160  0.19022491  0.64841099    -0.21500
C920        C  0.44829427  0.22844331  0.63680398    -0.09500
C921        C  0.47529397  0.25034344  0.65827943     0.29400
C922        C  0.49528563  0.23369712  0.68936616    -0.21500
C923        C  0.48885972  0.19496547  0.69986082    -0.09500
C924        C  0.46076321  0.17370227  0.67931556     0.29400
F925        F  0.45293193  0.13638548  0.68833050    -0.20000
H926        H  0.42004805  0.17255831  0.63316749     0.17700
H927        H  0.51702275  0.25072531  0.70418254     0.17700
F928        F  0.48315428  0.28752653  0.64885209    -0.20000
C929        C  0.47125819  0.19618124  0.93357074    -0.21500
C930        C  0.46416455  0.16601868  0.95969421    -0.09500
C931        C  0.48195200  0.12998022  0.95260418     0.29400
C932        C  0.50599007  0.12457954  0.92059199    -0.21500
C933        C  0.51277831  0.15448788  0.89429229    -0.09500
C934        C  0.49505303  0.19056378  0.90115525     0.29400
F935        F  0.50086388  0.22065814  0.87681684    -0.20000
H936        H  0.45789849  0.22405122  0.93785238     0.17700
H937        H  0.51891272  0.09652622  0.91611840     0.17700
F938        F  0.47609243  0.09946439  0.97639096    -0.20000
C939        C  0.75664252  0.15688192  0.86134652    -0.21500
C940        C  0.76093127  0.19649358  0.86850995    -0.09500
C941        C  0.72777173  0.22007927  0.86807026     0.29400
C942        C  0.69171190  0.20475614  0.85950182    -0.21500
C943        C  0.68719756  0.16555391  0.85088525    -0.09500
C944        C  0.72011151  0.14145298  0.85215746     0.29400
F945        F  0.71732019  0.10328113  0.84368230    -0.20000
H946        H  0.78157032  0.13816738  0.86187638     0.17700
H947        H  0.66725575  0.22409698  0.85901836     0.17700
F948        F  0.72987245  0.25834221  0.87652936    -0.20000
C949        C  0.61189986  0.23498229  0.66649972    -0.21500
C950        C  0.63432518  0.21771237  0.69539846    -0.09500
C951        C  0.66616328  0.23817883  0.71059680     0.29400
C952        C  0.67283536  0.27637936  0.70009719    -0.21500
C953        C  0.64881294  0.29452317  0.67335311    -0.09500
C954        C  0.61933323  0.27311181  0.65520307     0.29400
F955        F  0.59626798  0.28983375  0.62846247    -0.20000
H956        H  0.58681727  0.22016837  0.65495179     0.17700
H957        H  0.69673356  0.29196246  0.71309376     0.17700
F958        F  0.68919487  0.22206450  0.73780021    -0.20000
C959        C  0.71654449  0.02289708  0.67639508    -0.21500
C960        C  0.73625227  0.99550959  0.69865347    -0.09500
C961        C  0.72441721  0.99017364  0.73733891     0.29400
C962        C  0.69276266  0.01076859  0.75246217    -0.21500
C963        C  0.67207450  0.03701894  0.72945418    -0.09500
C964        C  0.68509763  0.04324662  0.69127021     0.29400
F965        F  0.66712430  0.06855983  0.66757014    -0.20000
H966        H  0.72472173  0.02784894  0.64660553     0.17700
H967        H  0.68395518  0.00550167  0.78200320     0.17700
F968        F  0.74208987  0.96378438  0.76005237    -0.20000
C969        C  0.06518910  0.77541527  0.18579029    -0.21500
C970        C  0.03782236  0.75319149  0.20585988    -0.09500
C971        C  0.03174095  0.71463668  0.19392351     0.29400
C972        C  0.05161859  0.69954425  0.16179246    -0.21500
C973        C  0.07793538  0.72244751  0.14081450    -0.09500
C974        C  0.08489754  0.76053948  0.15388065     0.29400
F975        F  0.11025300  0.78415303  0.13549530    -0.20000
H976        H  0.07055744  0.80513953  0.19402026     0.17700
H977        H  0.04582288  0.67009656  0.15292910     0.17700
F978        F  0.00523857  0.69204373  0.21195336    -0.20000
C979        C  0.03057950  0.95346673  0.31969175    -0.21500
C980        C  0.02862528  0.92984184  0.28653717    -0.09500
C981        C  0.05937394  0.93123649  0.26001585     0.29400
C982        C  0.09171245  0.95466230  0.26741782    -0.21500
C983        C  0.09417891  0.97742451  0.30126032    -0.09500
C984        C  0.06269771  0.97699155  0.32700099     0.29400
F985        F  0.06300990  0.99867019  0.35972928    -0.20000
H986        H  0.00731959  0.95324788  0.34061884     0.17700
H987        H  0.11514694  0.95451638  0.24670142     0.17700
F988        F  0.05912986  0.90870794  0.22785475    -0.20000
C989        C  0.80758360  0.92056247  0.18179170    -0.21500
C990        C  0.79123699  0.95163892  0.20206354    -0.09500
C991        C  0.80524088  0.96002155  0.23945800     0.29400
C992        C  0.83591341  0.93876134  0.25517727    -0.21500
C993        C  0.85341243  0.90873248  0.23407330    -0.09500
C994        C  0.83798552  0.89928260  0.19743526     0.29400
F995        F  0.85254192  0.86978108  0.17611313    -0.20000
H996        H  0.79750873  0.91332376  0.15304101     0.17700
H997        H  0.84674064  0.94666102  0.28346258     0.17700
F998        F  0.79105178  0.99027035  0.25993634    -0.20000
C999        C  0.71515447  0.76272404  0.53188507    -0.21500
C1000       C  0.73623800  0.74432105  0.50248603    -0.09500
C1001       C  0.77413442  0.75760991  0.49504184     0.29400
C1002       C  0.78937338  0.78967119  0.51525234    -0.21500
C1003       C  0.76729813  0.80931373  0.54328752    -0.09500
C1004       C  0.73021224  0.79449447  0.55198628     0.29400
F1005       F  0.70770639  0.81106238  0.57948724    -0.20000
H1006       H  0.68604455  0.75334136  0.53854000     0.17700
H1007       H  0.81812074  0.79975893  0.50813246     0.17700
F1008       F  0.79574028  0.74115257  0.46677104    -0.20000
C1009       C  0.79166621  0.72756923  0.34462311    -0.21500
C1010       C  0.76283523  0.74968340  0.36298813    -0.09500
C1011       C  0.77180358  0.78780382  0.37401145     0.29400
C1012       C  0.80902808  0.80277403  0.36729701    -0.21500
C1013       C  0.83804446  0.77951525  0.35082986    -0.09500
C1014       C  0.82876056  0.74179396  0.33942375     0.29400
F1015       F  0.85542336  0.71850912  0.32264850    -0.20000
H1016       H  0.78621815  0.69811820  0.33548512     0.17700
H1017       H  0.81543388  0.83224027  0.37571731     0.17700
F1018       F  0.74517891  0.81017715  0.39195339    -0.20000
C1019       C  0.56780990  0.77429725  0.27316589    -0.21500
C1020       C  0.53930574  0.75313647  0.25333469    -0.09500
C1021       C  0.53198815  0.71485011  0.26523830     0.29400
C1022       C  0.55162057  0.69908090  0.29707215    -0.21500
C1023       C  0.57904510  0.72092213  0.31788777    -0.09500
C1024       C  0.58745339  0.75863360  0.30474246     0.29400
F1025       F  0.61430632  0.78102133  0.32265108    -0.20000
H1026       H  0.57420848  0.80376065  0.26493832     0.17700
H1027       H  0.54464031  0.66995357  0.30594402     0.17700
F1028       F  0.50435376  0.69324557  0.24759782    -0.20000
C1029       C  0.72733080  0.54719351  0.49339281    -0.21500
C1030       C  0.69120717  0.55216767  0.47535948    -0.09500
C1031       C  0.66154389  0.52564049  0.48371860     0.29400
C1032       C  0.66789716  0.49543715  0.50971193    -0.21500
C1033       C  0.70392866  0.49064632  0.52803106    -0.09500
C1034       C  0.73372565  0.51691276  0.51929993     0.29400
F1035       F  0.76878477  0.51412717  0.53647071    -0.20000
H1036       H  0.75087261  0.56702111  0.48764556     0.17700
H1037       H  0.64419561  0.47589248  0.51576156     0.17700
F1038       F  0.62601502  0.52936078  0.46772391    -0.20000
C1039       C  0.72821947  0.45261849  0.23552370    -0.21500
C1040       C  0.73990575  0.44546021  0.19717802    -0.09500
C1041       C  0.71954775  0.41750451  0.17562661     0.29400
C1042       C  0.68735375  0.39884390  0.19139912    -0.21500
C1043       C  0.67425939  0.40747499  0.22900110    -0.09500
C1044       C  0.69575211  0.43406356  0.25128604     0.29400
F1045       F  0.68488829  0.44317751  0.28785734    -0.20000
H1046       H  0.74293291  0.47426214  0.25276830     0.17700
H1047       H  0.67217629  0.37801712  0.17357060     0.17700
F1048       F  0.72987029  0.40898213  0.13873099    -0.20000
C1049       C  0.79431853  0.43302490  0.01597829    -0.21500
C1050       C  0.82507371  0.45840820  0.02377501    -0.09500
C1051       C  0.86112643  0.45116142  0.00603143     0.29400
C1052       C  0.86603916  0.41926833  0.98163831    -0.21500
C1053       C  0.83549240  0.39349965  0.97445689    -0.09500
C1054       C  0.79936059  0.40090964  0.99182605     0.29400
F1055       F  0.76867976  0.37722640  0.98555097    -0.20000
H1056       H  0.76637826  0.43752323  0.02924996     0.17700
H1057       H  0.89415567  0.41440980  0.96886244     0.17700
F1058       F  0.89200592  0.47458145  0.01238533    -0.20000
C1059       C  0.96823872  0.42845286  0.20177059    -0.21500
C1060       C  0.99981957  0.42925101  0.17644569    -0.09500
C1061       C  0.99945188  0.45571701  0.14557055     0.29400
C1062       C  0.96760499  0.47973070  0.13955122    -0.21500
C1063       C  0.93519028  0.47793416  0.16394623    -0.09500
C1064       C  0.93620648  0.45221680  0.19561693     0.29400
F1065       F  0.90594343  0.44914805  0.22034870    -0.20000
H1066       H  0.96760305  0.40820614  0.22551760     0.17700
H1067       H  0.96818149  0.49938965  0.11532593     0.17700
F1068       F  0.02987114  0.45829827  0.12094617    -0.20000
C1069       C  0.85697294  0.66817795  0.20230355    -0.21500
C1070       C  0.88134544  0.65118388  0.17490789    -0.09500
C1071       C  0.91141281  0.67304987  0.15856836     0.29400
C1072       C  0.91856531  0.71075829  0.17164394    -0.21500
C1073       C  0.89529698  0.72709462  0.20064731    -0.09500
C1074       C  0.86341746  0.70596764  0.21461972     0.29400
F1075       F  0.83958372  0.72122345  0.24177400    -0.20000
H1076       H  0.83301226  0.65214964  0.21416139     0.17700
H1077       H  0.94371414  0.72599724  0.16116692     0.17700
F1078       F  0.93517666  0.65715872  0.13175212    -0.20000
C1079       C  0.70139466  0.56026697  0.24177637    -0.21500
C1080       C  0.72569683  0.58660294  0.22263246    -0.09500
C1081       C  0.73450949  0.62200633  0.24059992     0.29400
C1082       C  0.72240127  0.62931392  0.27832445    -0.21500
C1083       C  0.70061311  0.60186623  0.29848877    -0.09500
C1084       C  0.68865233  0.56796121  0.27952382     0.29400
F1085       F  0.66678888  0.54139372  0.29830963    -0.20000
H1086       H  0.69487165  0.53251645  0.22878765     0.17700
H1087       H  0.73056628  0.65626895  0.29209095     0.17700
F1088       F  0.75708420  0.64843930  0.22245550    -0.20000
C1089       C  0.73126374  0.64615046  0.05333838    -0.21500
C1090       C  0.76933116  0.63406206  0.04574574    -0.09500
C1091       C  0.79149109  0.65599470  0.01947481     0.29400
C1092       C  0.77518748  0.68774733  0.00023580    -0.21500
C1093       C  0.73644352  0.69844234  0.00649801    -0.09500
C1094       C  0.71503842  0.67766988  0.03416670     0.29400
F1095       F  0.67787576  0.68706724  0.04212565    -0.20000
H1096       H  0.71344581  0.63075307  0.07391763     0.17700
H1097       H  0.79244270  0.70278486  0.97891767     0.17700
F1098       F  0.82849666  0.64621231  0.01134394    -0.20000
C1099       C  0.55474874  0.74959429  0.79964225    -0.21500
C1100       C  0.58368208  0.72811694  0.81821033    -0.09500
C1101       C  0.59277229  0.69135084  0.80299162     0.29400
C1102       C  0.57191602  0.67580834  0.77198767    -0.21500
C1103       C  0.54165652  0.69632779  0.75477922    -0.09500
C1104       C  0.53393915  0.73397767  0.76831517     0.29400
F1105       F  0.50460810  0.75477661  0.75307856    -0.20000
H1106       H  0.54727345  0.77804687  0.81016335     0.17700
H1107       H  0.57868237  0.64688766  0.76223862     0.17700
F1108       F  0.62142280  0.66974225  0.81841379    -0.20000
C1109       C  0.33037469  0.51739239  0.70796127    -0.21500
C1110       C  0.35410667  0.54041740  0.73180167    -0.09500
C1111       C  0.34367037  0.54457958  0.77105065     0.29400
C1112       C  0.31178703  0.52487683  0.78608563    -0.21500
C1113       C  0.28919108  0.50030331  0.76282330    -0.09500
C1114       C  0.29828404  0.49758322  0.72315247     0.29400
F1115       F  0.27739401  0.47443709  0.69927688    -0.20000
H1116       H  0.33702175  0.51409801  0.67756507     0.17700
H1117       H  0.30574353  0.52779900  0.81665801     0.17700
F1118       F  0.36481702  0.56680447  0.79559603    -0.20000
C1119       C  0.56113935  0.51996423  0.70533947    -0.21500
C1120       C  0.52896496  0.51709447  0.68091107    -0.09500
C1121       C  0.52900253  0.48886008  0.65150496     0.29400
C1122       C  0.56101279  0.46501264  0.64599373    -0.21500
C1123       C  0.59393006  0.46870700  0.66944694    -0.09500
C1124       C  0.59338238  0.49628987  0.69967011     0.29400
F1125       F  0.62435789  0.50142080  0.72312652    -0.20000
H1126       H  0.56203190  0.54171158  0.72787807     0.17700
H1127       H  0.56011287  0.44389607  0.62287745     0.17700
F1128       F  0.49810440  0.48438962  0.62779480    -0.20000
C1129       C  0.51022693  0.62604195  0.52925752    -0.21500
C1130       C  0.51071562  0.65213657  0.56038241    -0.09500
C1131       C  0.53356593  0.68595106  0.55690577     0.29400
C1132       C  0.55621537  0.69244924  0.52395172    -0.21500
C1133       C  0.55691812  0.66558918  0.49359593    -0.09500
C1134       C  0.53293548  0.63253336  0.49633772     0.29400
F1135       F  0.53155041  0.60610604  0.46730665    -0.20000
H1136       H  0.49260287  0.60018953  0.53051796     0.17700
H1137       H  0.57429031  0.71799765  0.52283595     0.17700
F1138       F  0.53454287  0.71285007  0.58548161    -0.20000
C1139       C  0.21339840  0.02259012  0.78190305    -0.21500
C1140       C  0.23487957  0.99673926  0.75918572    -0.09500
C1141       C  0.22498059  0.99275998  0.71978560     0.29400
C1142       C  0.19378578  0.01343828  0.70420749    -0.21500
C1143       C  0.17156453  0.03835807  0.72745323    -0.09500
C1144       C  0.18225165  0.04288009  0.76659385     0.29400
F1145       F  0.16210401  0.06620468  0.79081629    -0.20000
H1146       H  0.21982732  0.02625449  0.81230884     0.17700
H1147       H  0.18660707  0.00933933  0.67403540     0.17700
F1148       F  0.24412418  0.96759595  0.69663986    -0.20000
C1149       C  0.29035460  0.01803233  0.93698521    -0.21500
C1150       C  0.31784644  0.98849891  0.93546777    -0.09500
C1151       C  0.35041060  0.99106532  0.95980162     0.29400
C1152       C  0.35590169  0.02313790  0.98384139    -0.21500
C1153       C  0.32925444  0.05354025  0.98426196    -0.09500
C1154       C  0.29589330  0.05024748  0.96093931     0.29400
F1155       F  0.26869555  0.07829751  0.96069009    -0.20000
H1156       H  0.26509402  0.01685582  0.91860367     0.17700
H1157       H  0.38151121  0.02436981  0.00171812     0.17700
F1158       F  0.37720307  0.96261967  0.96033079    -0.20000
C1159       C  0.43193656  0.99387743  0.76208524    -0.21500
C1160       C  0.43069252  0.96981428  0.79491554    -0.09500
C1161       C  0.46269697  0.97008024  0.81996159     0.29400
C1162       C  0.49434419  0.99416607  0.81275158    -0.21500
C1163       C  0.49534933  0.01866230  0.78042885    -0.09500
C1164       C  0.46383255  0.01801562  0.75484376     0.29400
F1165       F  0.46296382  0.04189019  0.72386685    -0.20000
H1166       H  0.40790608  0.99448659  0.74213342     0.17700
H1167       H  0.51811384  0.99396852  0.83304424     0.17700
F1168       F  0.46345650  0.94753485  0.85191020    -0.20000
C1169       C  0.35660471  0.77793859  0.75992295    -0.21500
C1170       C  0.37906007  0.79492040  0.78897377    -0.09500
C1171       C  0.40746622  0.77286902  0.80756336     0.29400
C1172       C  0.41578588  0.73552744  0.79430200    -0.21500
C1173       C  0.39511327  0.71964820  0.76311214    -0.09500
C1174       C  0.36395823  0.74043981  0.74757529     0.29400
F1175       F  0.34212511  0.72534725  0.71860754    -0.20000
H1176       H  0.33341131  0.79390989  0.74654598     0.17700
H1177       H  0.44011785  0.72029684  0.80645544     0.17700
F1178       F  0.42868178  0.78828675  0.83677011    -0.20000
C1179       C  0.21678482  0.76503329  0.92793790    -0.21500
C1180       C  0.23728017  0.74892029  0.95885303    -0.09500
C1181       C  0.27403276  0.76434759  0.96772165     0.29400
C1182       C  0.28890712  0.79597494  0.94687345    -0.21500
C1183       C  0.26743968  0.81309528  0.91697955    -0.09500
C1184       C  0.23141843  0.79644462  0.90730516     0.29400
F1185       F  0.20968947  0.81069625  0.87808867    -0.20000
H1186       H  0.18846615  0.75401361  0.92036636     0.17700
H1187       H  0.31675634  0.80778137  0.95494405     0.17700
F1188       F  0.29461232  0.75052514  0.99795455    -0.20000
C1189       C  0.23248561  0.65355158  0.40093018    -0.21500
C1190       C  0.26872919  0.63842080  0.41125467    -0.09500
C1191       C  0.29008557  0.65785713  0.44006760     0.29400
C1192       C  0.27441522  0.68986242  0.45950740    -0.21500
C1193       C  0.23714931  0.70334320  0.45080472    -0.09500
C1194       C  0.21688067  0.68547162  0.42027183     0.29400
F1195       F  0.18127003  0.69791483  0.40991260    -0.20000
H1196       H  0.21558619  0.64015475  0.37819872     0.17700
H1197       H  0.29063005  0.70261210  0.48309104     0.17700
F1198       F  0.32536592  0.64499364  0.45084016    -0.20000
C1199       C  0.17696759  0.92771081  0.48956282    -0.21500
C1200       C  0.20269223  0.89651289  0.48870373    -0.09500
C1201       C  0.23554389  0.89939394  0.46442968     0.29400
C1202       C  0.24105808  0.93166427  0.44048056    -0.21500
C1203       C  0.21410672  0.96177737  0.43997295    -0.09500
C1204       C  0.18250173  0.95983254  0.46569949     0.29400
F1205       F  0.15644915  0.98890871  0.46755255    -0.20000
H1206       H  0.15190864  0.92704264  0.50826850     0.17700
H1207       H  0.26561840  0.93228695  0.42110810     0.17700
F1208       F  0.26198110  0.87065898  0.46286837    -0.20000
C1209       C  0.04282293  0.81715344  0.45968802    -0.21500
C1210       C  0.06105156  0.78117601  0.46452569    -0.09500
C1211       C  0.05288723  0.75151645  0.43792879     0.29400
C1212       C  0.02836265  0.75839445  0.40655391    -0.21500
C1213       C  0.01108715  0.79476060  0.40115855    -0.09500
C1214       C  0.01811607  0.82391792  0.42857822     0.29400
F1215       F  0.00231619  0.85945478  0.42472436    -0.20000
H1216       H  0.04822122  0.84061891  0.47974352     0.17700
H1217       H  0.02312745  0.73514694  0.38620670     0.17700
F1218       F  0.06955261  0.71633819  0.44131827    -0.20000
C1219       C  0.18504612  0.86617455  0.68297135    -0.21500
C1220       C  0.20218998  0.83578291  0.66234582    -0.09500
C1221       C  0.22704802  0.81051514  0.68157977     0.29400
C1222       C  0.23791022  0.81806426  0.71957647    -0.21500
C1223       C  0.22468730  0.85126460  0.73879915    -0.09500
C1224       C  0.19639800  0.87413589  0.72103894     0.29400
F1225       F  0.18287238  0.90634495  0.73877189    -0.20000
H1226       H  0.16457790  0.88498132  0.66888764     0.17700
H1227       H  0.25934075  0.79975131  0.73289124     0.17700
F1228       F  0.24147802  0.77896360  0.66337529    -0.20000
C1229       C  0.33733655  0.70003064  0.59052222    -0.21500
C1230       C  0.34043937  0.66255847  0.60497545    -0.09500
C1231       C  0.30675813  0.63922821  0.60690367     0.29400
C1232       C  0.27068611  0.65411875  0.59597441    -0.21500
C1233       C  0.26781498  0.69238962  0.58356453    -0.09500
C1234       C  0.30172956  0.71476464  0.57993922     0.29400
F1235       F  0.30043763  0.75155789  0.56662320    -0.20000
H1236       H  0.36248648  0.71855416  0.58817148     0.17700
H1237       H  0.24498760  0.63646302  0.59887142     0.17700
F1238       F  0.30825492  0.60272849  0.62086528    -0.20000
C1239       C  0.05627587  0.74877683  0.65893373    -0.21500
C1240       C  0.08253601  0.72572688  0.63810491    -0.09500
C1241       C  0.08947528  0.68797508  0.65163448     0.29400
C1242       C  0.06954665  0.67343735  0.68363538    -0.21500
C1243       C  0.04200450  0.69570822  0.70340216    -0.09500
C1244       C  0.03621076  0.73406561  0.69114049     0.29400
F1245       F  0.00971310  0.75680081  0.70883908    -0.20000
H1246       H  0.05056924  0.77803849  0.64982181     0.17700
H1247       H  0.07478952  0.64387747  0.69209841     0.17700
F1248       F  0.11491106  0.66433799  0.63352365    -0.20000
loop_ 
_geom_bond_atom_site_label_1 
_geom_bond_atom_site_label_2 
_geom_bond_distance 
_geom_bond_site_symmetry_2 
_ccdc_geom_bond_type 
Fe1          O17   2.125       .  S
Fe1           O7   2.028       .  S
Fe1          O14   2.030       .  S
Fe1           O6   2.114       .  S
Fe1          O12   1.939       .  S
Fe2           O5   2.129       .  S
Fe2           O9   2.052       .  S
Fe2          O13   2.087       .  S
Fe2          O18   2.015       .  S
Fe2          O12   1.926       .  S
Fe3          O21   2.048       .  S
Fe3           O8   2.139       .  S
Fe3          O15   2.118       .  S
Fe3           O4   2.056       .  S
Fe3          O12   1.950       .  S
O4           C11   1.271       .  A
O5           C19   1.282       .  A
O6           C11   1.281       .  A
O7           C10   1.265       .  A
O8           C20   1.276       .  A
O9           C22   1.272       .  A
C10          O15   1.281       .  A
C10        C1210   1.488       .  S
C11        C1240   1.501       .  S
O13          C16   1.273       .  A
O14          C16   1.258       .  A
C16        C1220   1.468       .  S
O17          C22   1.286       .  A
O18          C20   1.252       .  A
C19          O21   1.269       .  A
C19        C1193   1.494       .  S
C20        C1233   1.476       .  S
C22        C1200   1.501       .  S
Fe23         O39   2.113       .  S
Fe23         O29   2.038       .  S
Fe23         O36   2.035       .  S
Fe23         O28   2.107       .  S
Fe23         O34   1.950       .  S
Fe24         O27   2.116       .  S
Fe24         O31   2.055       .  S
Fe24         O35   2.084       .  S
Fe24         O40   2.021       .  S
Fe24         O34   1.943       .  S
Fe25         O43   2.048       .  S
Fe25         O30   2.117       .  S
Fe25         O37   2.106       .  S
Fe25         O26   2.055       .  S
Fe25         O34   1.944       .  S
O26          C33   1.270       .  A
O27          C41   1.277       .  A
O28          C33   1.278       .  A
O29          C32   1.266       .  A
O30          C42   1.278       .  A
O31          C44   1.272       .  A
C32          O37   1.279       .  A
C32        C1150   1.486       .  S
C33        C1183   1.499       .  S
O35          C38   1.272       .  A
O36          C38   1.259       .  A
C38        C1170   1.469       .  S
O39          C44   1.283       .  A
O40          C42   1.262       .  A
C41          O43   1.267       .  A
C41        C1140   1.496       .  S
C42        C1223   1.471       .  S
C44        C1160   1.496       .  S
Fe45         O61   2.130       .  S
Fe45         O51   2.042       .  S
Fe45         O58   2.042       .  S
Fe45         O50   2.104       .  S
Fe45         O56   1.945       .  S
Fe46         O49   2.115       .  S
Fe46         O53   2.040       .  S
Fe46         O57   2.092       .  S
Fe46         O62   2.018       .  S
Fe46         O56   1.935       .  S
Fe47         O65   2.049       .  S
Fe47         O52   2.121       .  S
Fe47         O59   2.107       .  S
Fe47         O48   2.053       .  S
Fe47         O56   1.942       .  S
O48          C55   1.268       .  A
O49          C63   1.276       .  A
O50          C55   1.277       .  A
O51          C54   1.268       .  A
O52          C64   1.280       .  A
O53          C66   1.270       .  A
C54          O59   1.280       .  A
C54        C1120   1.485       .  S
C55        C1110   1.497       .  S
O57          C60   1.274       .  A
O58          C60   1.260       .  A
C60        C1230   1.485       .  S
O61          C66   1.286       .  A
O62          C64   1.263       .  A
C63          O65   1.266       .  A
C63        C1103   1.492       .  S
C64        C1173   1.474       .  S
C66        C1130   1.497       .  S
Fe67         O83   2.119       .  S
Fe67         O73   2.041       .  S
Fe67         O80   2.037       .  S
Fe67         O72   2.113       .  S
Fe67         O78   1.950       .  S
Fe68         O71   2.105       .  S
Fe68         O75   2.048       .  S
Fe68         O79   2.082       .  S
Fe68         O84   2.023       .  S
Fe68         O78   1.941       .  S
Fe69         O87   2.049       .  S
Fe69         O74   2.121       .  S
Fe69         O81   2.107       .  S
Fe69         O70   2.060       .  S
Fe69         O78   1.948       .  S
O70          C77   1.271       .  A
O71          C85   1.275       .  A
O72          C77   1.280       .  A
O73          C76   1.266       .  A
O74          C86   1.279       .  A
O75          C88   1.271       .  A
C76          O81   1.279       .  A
C76        C1050   1.492       .  S
C77        C1090   1.503       .  S
O79          C82   1.271       .  A
O80          C82   1.260       .  A
C82        C1070   1.467       .  S
O83          C88   1.284       .  A
O84          C86   1.262       .  A
C85          O87   1.266       .  A
C85        C1040   1.490       .  S
C86        C1080   1.471       .  S
C88        C1063   1.497       .  S
Fe89        O105   2.126       .  S
Fe89         O95   2.033       .  S
Fe89        O102   2.039       .  S
Fe89         O94   2.113       .  S
Fe89        O100   1.943       .  S
Fe90         O93   2.129       .  S
Fe90         O97   2.041       .  S
Fe90        O101   2.088       .  S
Fe90        O106   2.011       .  S
Fe90        O100   1.934       .  S
Fe91        O109   2.049       .  S
Fe91         O96   2.143       .  S
Fe91        O103   2.123       .  S
Fe91         O92   2.060       .  S
Fe91        O100   1.944       .  S
O92          C99   1.271       .  A
O93         C107   1.278       .  A
O94          C99   1.281       .  A
O95          C98   1.264       .  A
O96         C108   1.282       .  A
O97         C110   1.273       .  A
C98         O103   1.283       .  A
C98        C1133   1.493       .  S
C99        C1023   1.503       .  S
O101        C104   1.270       .  A
O102        C104   1.258       .  A
C104       C1083   1.468       .  S
O105        C110   1.287       .  A
O106        C108   1.257       .  A
C107        O109   1.267       .  A
C107       C1000   1.499       .  S
C108       C1010   1.487       .  S
C110       C1030   1.493       .  S
Fe111       O127   2.122       .  S
Fe111       O117   2.041       .  S
Fe111       O124   2.046       .  S
Fe111       O116   2.106       .  S
Fe111       O122   1.943       .  S
Fe112       O115   2.113       .  S
Fe112       O119   2.037       .  S
Fe112       O123   2.083       .  S
Fe112       O128   2.018       .  S
Fe112       O122   1.938       .  S
Fe113       O131   2.046   1_655  S
Fe113       O118   2.127       .  S
Fe113       O125   2.113       .  S
Fe113       O114   2.057       .  S
Fe113       O122   1.936       .  S
O114        C121   1.269       .  A
O115        C129   1.275   1_655  A
O116        C121   1.278       .  A
O117        C120   1.268       .  A
O118        C130   1.282       .  A
O119        C132   1.271       .  A
C120        O125   1.281       .  A
C120        C980   1.490   1_655  S
C121        C993   1.499       .  S
O123        C126   1.271       .  A
O124        C126   1.261       .  A
C126       C1013   1.477       .  S
O127        C132   1.285       .  A
O128        C130   1.262       .  A
C129        O131   1.265       .  A
C129        C970   1.492       .  S
C130       C1073   1.473       .  S
C132       C1213   1.487   1_655  S
Fe133       O149   2.126       .  S
Fe133       O139   2.040       .  S
Fe133       O146   2.046       .  S
Fe133       O138   2.109       .  S
Fe133       O144   1.939       .  S
Fe134       O137   2.119       .  S
Fe134       O141   2.043       .  S
Fe134       O145   2.088       .  S
Fe134       O150   2.016       .  S
Fe134       O144   1.938       .  S
Fe135       O153   2.043       .  S
Fe135       O140   2.129       .  S
Fe135       O147   2.114       .  S
Fe135       O136   2.057       .  S
Fe135       O144   1.938       .  S
O136        C143   1.269       .  A
O137        C151   1.276       .  A
O138        C143   1.278       .  A
O139        C142   1.268       .  A
O140        C152   1.282       .  A
O141        C154   1.271       .  A
C142        O147   1.281       .  A
C142       C1163   1.490       .  S
C143        C963   1.502       .  S
O145        C148   1.273       .  A
O146        C148   1.260       .  A
C148        C943   1.486       .  S
O149        C154   1.287       .  A
O150        C152   1.261       .  A
C151        O153   1.264       .  A
C151        C923   1.494       .  S
C152        C950   1.473       .  S
C154        C933   1.492       .  S
Fe155       O171   2.113       .  S
Fe155       O161   2.033       .  S
Fe155       O168   2.042       .  S
Fe155       O160   2.101       .  S
Fe155       O166   1.938       .  S
Fe156       O159   2.130       .  S
Fe156       O163   2.045       .  S
Fe156       O167   2.087       .  S
Fe156       O172   2.014       .  S
Fe156       O166   1.929       .  S
Fe157       O175   2.039       .  S
Fe157       O162   2.145       .  S
Fe157       O169   2.124       .  S
Fe157       O158   2.059       .  S
Fe157       O166   1.946       .  S
O158        C165   1.272       .  A
O159        C173   1.280       .  A
O160        C165   1.278       .  A
O161        C164   1.265       .  A
O162        C174   1.280       .  A
O163        C176   1.272       .  A
C164        O169   1.282       .  A
C164        C893   1.490       .  S
C165        C910   1.494       .  S
O167        C170   1.272       .  A
O168        C170   1.259       .  A
C170        C900   1.469       .  S
O171        C176   1.284       .  A
O172        C174   1.254       .  A
C173        O175   1.266       .  A
C173        C880   1.491   1_556  S
C174        C940   1.482       .  S
C176       C1053   1.490       .  S
Fe177       O193   2.108       .  S
Fe177       O183   2.041       .  S
Fe177       O190   2.033       .  S
Fe177       O182   2.105       .  S
Fe177       O188   1.950       .  S
Fe178       O181   2.116       .  S
Fe178       O185   2.054       .  S
Fe178       O189   2.087       .  S
Fe178       O194   2.022       .  S
Fe178       O188   1.943       .  S
Fe179       O197   2.047       .  S
Fe179       O184   2.120       .  S
Fe179       O191   2.111       .  S
Fe179       O180   2.057       .  S
Fe179       O188   1.945       .  S
O180        C187   1.270       .  A
O181        C195   1.277       .  A
O182        C187   1.278       .  A
O183        C186   1.266       .  A
O184        C196   1.278       .  A
O185        C198   1.272       .  A
C186        O191   1.279       .  A
C186       C1033   1.494       .  S
C187        C873   1.498       .  S
O189        C192   1.272       .  A
O190        C192   1.259       .  A
C192        C953   1.469       .  S
O193        C198   1.282       .  A
O194        C196   1.262       .  A
C195        O197   1.268       .  A
C195        C863   1.494       .  S
C196        C903   1.473       .  S
C198       C1123   1.493       .  S
Fe199       O215   2.115       .  S
Fe199       O205   2.038       .  S
Fe199       O212   2.041       .  S
Fe199       O204   2.102       .  S
Fe199       O210   1.946       .  S
Fe200       O203   2.113       .  S
Fe200       O207   2.042       .  S
Fe200       O211   2.085       .  S
Fe200       O216   2.018       .  S
Fe200       O210   1.935       .  S
Fe201       O219   2.047   1_554  S
Fe201       O206   2.132       .  S
Fe201       O213   2.118       .  S
Fe201       O202   2.056       .  S
Fe201       O210   1.941       .  S
O202        C209   1.270       .  A
O203        C217   1.275   1_554  A
O204        C209   1.277       .  A
O205        C208   1.266   1_554  A
O206        C218   1.282       .  A
O207        C220   1.271       .  A
C208        O213   1.282   1_556  A
C208        C930   1.496       .  S
C209        C850   1.498       .  S
O211        C214   1.272       .  A
O212        C214   1.259       .  A
C214        C843   1.473       .  S
O215        C220   1.284       .  A
O216        C218   1.263       .  A
C217        O219   1.266       .  A
C217        C823   1.492       .  S
C218        C833   1.478       .  S
C220       C1153   1.491   1_554  S
Fe221       O237   2.115       .  S
Fe221       O227   2.039       .  S
Fe221       O234   2.036       .  S
Fe221       O226   2.106       .  S
Fe221       O232   1.954       .  S
Fe222       O225   2.128       .  S
Fe222       O229   2.055       .  S
Fe222       O233   2.092       .  S
Fe222       O238   2.029       .  S
Fe222       O232   1.942       .  S
Fe223       O241   2.044       .  S
Fe223       O228   2.129       .  S
Fe223       O235   2.112       .  S
Fe223       O224   2.054       .  S
Fe223       O232   1.944       .  S
O224        C231   1.271       .  A
O225        C239   1.280       .  A
O226        C231   1.279       .  A
O227        C230   1.265       .  A
O228        C240   1.279       .  A
O229        C242   1.272       .  A
C230        O235   1.279       .  A
C230       C1060   1.488   1_455  S
C231        C813   1.496       .  S
O233        C236   1.274       .  A
O234        C236   1.259       .  A
C236        C830   1.473       .  S
O237        C242   1.284       .  A
O238        C240   1.260       .  A
C239        O241   1.266       .  A
C239        C793   1.497   1_455  S
C240        C803   1.476       .  S
C242        C890   1.498       .  S
Fe243       O259   2.119       .  S
Fe243       O249   2.042       .  S
Fe243       O256   2.043       .  S
Fe243       O248   2.107       .  S
Fe243       O254   1.944       .  S
Fe244       O247   2.136   1_545  S
Fe244       O251   2.047   1_545  S
Fe244       O255   2.099       .  S
Fe244       O260   2.006       .  S
Fe244       O254   1.934       .  S
Fe245       O263   2.045   1_545  S
Fe245       O250   2.140       .  S
Fe245       O257   2.126       .  S
Fe245       O246   2.058       .  S
Fe245       O254   1.945       .  S
O246        C253   1.271       .  A
O247        C261   1.281       .  A
O248        C253   1.278       .  A
O249        C252   1.268   1_545  A
O250        C262   1.281       .  A
O251        C264   1.272   1_565  A
C252        O257   1.283   1_565  A
C252       C1203   1.495       .  S
C253        C780   1.499       .  S
O255        C258   1.274       .  A
O256        C258   1.260       .  A
C258        C800   1.474       .  S
O259        C264   1.284       .  A
O260        C262   1.255       .  A
C261        O263   1.267       .  A
C261        C773   1.502       .  S
C262        C840   1.485       .  S
C264        C983   1.495   1_545  S
Fe265       O281   2.048       .  S
Fe265       O271   2.109       .  S
Fe265       O278   2.129       .  S
Fe265       O270   2.036       .  S
Fe265       O276   1.939       .  S
Fe266       O269   2.013       .  S
Fe266       O273   2.085       .  S
Fe266       O277   2.032       .  S
Fe266       O282   2.113       .  S
Fe266       O276   1.930       .  S
Fe267       O285   2.137       .  S
Fe267       O272   2.045       .  S
Fe267       O279   2.053       .  S
Fe267       O268   2.108       .  S
Fe267       O276   1.939       .  S
O268        C275   1.280       .  A
O269        C283   1.261       .  A
O270        C275   1.267       .  A
O271        C274   1.279       .  A
O272        C284   1.264       .  A
O273        C286   1.272       .  A
C274        O279   1.270       .  A
C274       C1143   1.499       .  S
C275        C740   1.481   1_455  S
O277        C280   1.270       .  A
O278        C280   1.287       .  A
C280        C730   1.488       .  S
O281        C286   1.260       .  A
O282        C284   1.276       .  A
C283        O285   1.282       .  A
C283        C750   1.483       .  S
C284        C913   1.486   1_455  S
C286        C760   1.485       .  S
Fe287       O303   2.044       .  S
Fe287       O293   2.107       .  S
Fe287       O300   2.118       .  S
Fe287       O292   2.047       .  S
Fe287       O298   1.948       .  S
Fe288       O291   2.020       .  S
Fe288       O295   2.085       .  S
Fe288       O299   2.043       .  S
Fe288       O304   2.115       .  S
Fe288       O298   1.938       .  S
Fe289       O307   2.131       .  S
Fe289       O294   2.044       .  S
Fe289       O301   2.056       .  S
Fe289       O290   2.113       .  S
Fe289       O298   1.943       .  S
O290        C297   1.280       .  A
O291        C305   1.261       .  A
O292        C297   1.268       .  A
O293        C296   1.279       .  A
O294        C306   1.266       .  A
O295        C308   1.272       .  A
C296        O301   1.270       .  A
C296        C820   1.498       .  S
C297        C703   1.491       .  S
O299        C302   1.271       .  A
O300        C302   1.285       .  A
C302        C713   1.492       .  S
O303        C308   1.260       .  A
O304        C306   1.276       .  A
C305        O307   1.280       .  A
C305        C720   1.481       .  S
C306       C1113   1.494       .  S
C308        C753   1.475       .  S
Fe309       O325   2.049       .  S
Fe309       O315   2.104       .  S
Fe309       O322   2.119       .  S
Fe309       O314   2.040       .  S
Fe309       O320   1.942       .  S
Fe310       O313   2.015       .  S
Fe310       O317   2.084       .  S
Fe310       O321   2.043       .  S
Fe310       O326   2.126       .  S
Fe310       O320   1.929       .  S
Fe311       O329   2.144       .  S
Fe311       O316   2.046       .  S
Fe311       O323   2.059       .  S
Fe311       O312   2.115       .  S
Fe311       O320   1.948       .  S
O312        C319   1.281       .  A
O313        C327   1.255       .  A
O314        C319   1.267       .  A
O315        C318   1.279       .  A
O316        C328   1.266       .  A
O317        C330   1.271       .  A
C318        O323   1.273       .  A
C318        C920   1.498       .  S
C319        C693   1.489       .  S
O321        C324   1.273       .  A
O322        C324   1.285       .  A
C324        C680   1.493       .  S
O325        C330   1.261       .  A
O326        C328   1.278       .  A
C327        O329   1.280       .  A
C327        C763   1.483       .  S
C328        C783   1.493       .  S
C330        C723   1.475       .  S
Fe331       O347   2.039       .  S
Fe331       O337   2.102       .  S
Fe331       O344   2.123       .  S
Fe331       O336   2.033       .  S
Fe331       O342   1.938       .  S
Fe332       O335   2.015       .  S
Fe332       O339   2.093       .  S
Fe332       O343   2.043       .  S
Fe332       O348   2.121       .  S
Fe332       O342   1.931       .  S
Fe333       O351   2.127       .  S
Fe333       O338   2.050   1_545  S
Fe333       O345   2.057       .  S
Fe333       O334   2.115       .  S
Fe333       O342   1.943       .  S
O334        C341   1.281   1_545  A
O335        C349   1.260       .  A
O336        C341   1.266   1_545  A
O337        C340   1.277       .  A
O338        C350   1.268       .  A
O339        C352   1.273       .  A
C340        O345   1.270       .  A
C340        C883   1.497       .  S
C341        C650   1.485       .  S
O343        C346   1.271       .  A
O344        C346   1.286       .  A
C346        C643   1.494   1_545  S
O347        C352   1.258       .  A
O348        C350   1.278   1_545  A
C349        O351   1.279       .  A
C349        C660   1.479       .  S
C350        C990   1.493       .  S
C352        C673   1.482       .  S
Fe353       O369   2.028       .  S
Fe353       O359   2.105       .  S
Fe353       O366   2.114       .  S
Fe353       O358   2.025       .  S
Fe353       O364   1.947       .  S
Fe354       O357   2.019       .  S
Fe354       O361   2.090       .  S
Fe354       O365   2.054       .  S
Fe354       O370   2.117       .  S
Fe354       O364   1.938       .  S
Fe355       O373   2.133       .  S
Fe355       O360   2.050       .  S
Fe355       O367   2.065       .  S
Fe355       O356   2.124       .  S
Fe355       O364   1.947       .  S
O356        C363   1.282       .  A
O357        C371   1.262       .  A
O358        C363   1.265       .  A
O359        C362   1.277       .  A
O360        C372   1.268       .  A
O361        C374   1.274       .  A
C362        O367   1.272       .  A
C362        C790   1.502       .  S
C363        C733   1.492       .  S
O365        C368   1.271       .  A
O366        C368   1.283       .  A
C368        C620   1.494       .  S
O369        C374   1.258       .  A
O370        C372   1.278       .  A
C371        O373   1.280       .  A
C371        C630   1.483       .  S
C372        C870   1.493       .  S
C374        C663   1.470       .  S
Fe375       O391   2.041       .  S
Fe375       O381   2.106       .  S
Fe375       O388   2.119       .  S
Fe375       O380   2.036       .  S
Fe375       O386   1.943       .  S
Fe376       O379   2.018       .  S
Fe376       O383   2.089       .  S
Fe376       O387   2.044       .  S
Fe376       O392   2.125       .  S
Fe376       O386   1.931       .  S
Fe377       O395   2.137       .  S
Fe377       O382   2.041       .  S
Fe377       O389   2.052       .  S
Fe377       O378   2.116       .  S
Fe377       O386   1.948       .  S
O378        C385   1.280       .  A
O379        C393   1.256       .  A
O380        C385   1.265       .  A
O381        C384   1.279       .  A
O382        C394   1.266       .  A
O383        C396   1.273       .  A
C384        O389   1.271       .  A
C384       C1043   1.495       .  S
C385        C610   1.487       .  S
O387        C390   1.271       .  A
O388        C390   1.285       .  A
C390        C690   1.495       .  S
O391        C396   1.260       .  A
O392        C394   1.279       .  A
C393        O395   1.278       .  A
C393        C670   1.475       .  S
C394        C853   1.494       .  S
C396        C633   1.474       .  S
Fe397       O413   2.035       .  S
Fe397       O403   2.111       .  S
Fe397       O410   2.124       .  S
Fe397       O402   2.029       .  S
Fe397       O408   1.940       .  S
Fe398       O401   2.013       .  S
Fe398       O405   2.085       .  S
Fe398       O409   2.050       .  S
Fe398       O414   2.129       .  S
Fe398       O408   1.929       .  S
Fe399       O417   2.137       .  S
Fe399       O404   2.043   1_554  S
Fe399       O411   2.050       .  S
Fe399       O400   2.115       .  S
Fe399       O408   1.944       .  S
O400        C407   1.281   1_554  A
O401        C415   1.257       .  A
O402        C407   1.265   1_554  A
O403        C406   1.280       .  A
O404        C416   1.266       .  A
O405        C418   1.271       .  A
C406        O411   1.269       .  A
C406        C973   1.498       .  S
C407        C583   1.488       .  S
O409        C412   1.273       .  A
O410        C412   1.286       .  A
C412        C700   1.498   1_554  S
O413        C418   1.258       .  A
O414        C416   1.279   1_554  A
C415        O417   1.280       .  A
C415        C590   1.485       .  S
C416       C1180   1.494       .  S
C418        C600   1.466       .  S
Fe419       O435   2.042       .  S
Fe419       O425   2.110       .  S
Fe419       O432   2.125       .  S
Fe419       O424   2.039       .  S
Fe419       O430   1.946       .  S
Fe420       O423   2.012       .  S
Fe420       O427   2.085       .  S
Fe420       O431   2.042       .  S
Fe420       O436   2.120       .  S
Fe420       O430   1.936       .  S
Fe421       O439   2.131       .  S
Fe421       O426   2.053       .  S
Fe421       O433   2.066       .  S
Fe421       O422   2.117       .  S
Fe421       O430   1.944       .  S
O422        C429   1.282       .  A
O423        C437   1.261       .  A
O424        C429   1.268       .  A
O425        C428   1.278       .  A
O426        C438   1.267       .  A
O427        C440   1.272       .  A
C428        O433   1.272       .  A
C428        C770   1.506       .  S
C429        C640   1.492       .  S
O431        C434   1.272       .  A
O432        C434   1.286       .  A
C434        C560   1.490       .  S
O435        C440   1.260       .  A
O436        C438   1.277       .  A
C437        O439   1.281       .  A
C437        C570   1.480       .  S
C438       C1020   1.498       .  S
C440        C593   1.476       .  S
Fe441       O457   2.038       .  S
Fe441       O447   2.108       .  S
Fe441       O454   2.120       .  S
Fe441       O446   2.043       .  S
Fe441       O452   1.949       .  S
Fe442       O445   2.026       .  S
Fe442       O449   2.085       .  S
Fe442       O453   2.048       .  S
Fe442       O458   2.111       .  S
Fe442       O452   1.941       .  S
Fe443       O461   2.113       .  S
Fe443       O448   2.045       .  S
Fe443       O455   2.057       .  S
Fe443       O444   2.102       .  S
Fe443       O452   1.945       .  S
O444        C451   1.277       .  A
O445        C459   1.263       .  A
O446        C451   1.266       .  A
O447        C450   1.279       .  A
O448        C460   1.266       .  A
O449        C462   1.272       .  A
C450        O455   1.270       .  A
C450       C1190   1.499       .  S
C451        C683   1.485       .  S
O453        C456   1.271       .  A
O454        C456   1.285       .  A
C456        C613   1.496       .  S
O457        C462   1.259       .  A
O458        C460   1.276       .  A
C459        O461   1.277       .  A
C459        C603   1.471       .  S
C460        C810   1.493       .  S
C462        C573   1.472       .  S
Fe463       O479   2.031       .  S
Fe463       O469   2.108       .  S
Fe463       O476   2.121       .  S
Fe463       O468   2.033       .  S
Fe463       O474   1.947       .  S
Fe464       O467   2.017       .  S
Fe464       O471   2.088       .  S
Fe464       O475   2.041       .  S
Fe464       O480   2.117       .  S
Fe464       O474   1.936       .  S
Fe465       O483   2.130       .  S
Fe465       O470   2.055       .  S
Fe465       O477   2.058       .  S
Fe465       O466   2.122       .  S
Fe465       O474   1.943       .  S
O466        C473   1.283       .  A
O467        C481   1.261       .  A
O468        C473   1.266       .  A
O469        C472   1.278       .  A
O470        C482   1.268       .  A
O471        C484   1.272       .  A
C472        O477   1.270       .  A
C472       C1100   1.500       .  S
C473        C563   1.495       .  S
O475        C478   1.270       .  A
O476        C478   1.285       .  A
C478        C653   1.493       .  S
O479        C484   1.258       .  A
O480        C482   1.277       .  A
C481        O483   1.281       .  A
C481        C550   1.475       .  S
C482       C1093   1.499   1_556  S
C484        C540   1.472       .  S
Fe485       O501   2.037       .  S
Fe485       O491   2.114       .  S
Fe485       O498   2.131       .  S
Fe485       O490   2.033       .  S
Fe485       O496   1.933       .  S
Fe486       O489   2.007       .  S
Fe486       O493   2.090       .  S
Fe486       O497   2.032       .  S
Fe486       O502   2.127       .  S
Fe486       O496   1.928       .  S
Fe487       O505   2.140       .  S
Fe487       O492   2.047       .  S
Fe487       O499   2.058       .  S
Fe487       O488   2.125       .  S
Fe487       O496   1.936       .  S
O488        C495   1.284       .  A
O489        C503   1.258       .  A
O490        C495   1.266       .  A
O491        C494   1.279       .  A
O492        C504   1.266       .  A
O493        C506   1.272       .  A
C494        O499   1.270       .  A
C494       C1003   1.505       .  S
C495        C623   1.496       .  S
O497        C500   1.270       .  A
O498        C500   1.288       .  A
C500        C743   1.491       .  S
O501        C506   1.258       .  A
O502        C504   1.277       .  A
C503        O505   1.283       .  A
C503        C543   1.482       .  S
C504        C960   1.497       .  S
C506        C530   1.482       .  S
Fe507       O523   2.038       .  S
Fe507       O513   2.106       .  S
Fe507       O520   2.114       .  S
Fe507       O512   2.032       .  S
Fe507       O518   1.940       .  S
Fe508       O511   2.012       .  S
Fe508       O515   2.088       .  S
Fe508       O519   2.045       .  S
Fe508       O524   2.131       .  S
Fe508       O518   1.932       .  S
Fe509       O527   2.136       .  S
Fe509       O514   2.046   1_655  S
Fe509       O521   2.056       .  S
Fe509       O510   2.117       .  S
Fe509       O518   1.949       .  S
O510        C517   1.281       .  A
O511        C525   1.253       .  A
O512        C517   1.266       .  A
O513        C516   1.279       .  A
O514        C526   1.268       .  A
O515        C528   1.272       .  A
C516        O521   1.271       .  A
C516        C860   1.498       .  S
C517        C710   1.489   1_655  S
O519        C522   1.271       .  A
O520        C522   1.285       .  A
C522        C580   1.491   1_655  S
O523        C528   1.259       .  A
O524        C526   1.280   1_655  A
C525        O527   1.277       .  A
C525        C533   1.474       .  S
C526       C1243   1.497       .  S
C528        C553   1.471       .  S
C529        C530   1.398       .  A
C529        C534   1.388       .  A
C529        H536   1.083       .  S
C530        C531   1.417       .  A
C531        C532   1.405       .  A
C531        F538   1.357       .  S
C532        C533   1.399       .  A
C532        H537   1.083       .  S
C533        C534   1.412       .  A
C534        F535   1.359       .  S
C539        C540   1.410       .  A
C539        C544   1.405       .  A
C539        H546   1.083       .  S
C540        C541   1.399       .  A
C541        C542   1.387       .  A
C541        F548   1.358       .  S
C542        C543   1.411       .  A
C542        H547   1.084       .  S
C543        C544   1.407       .  A
C544        F545   1.357       .  S
C549        C550   1.405       .  A
C549        C554   1.391       .  A
C549        H556   1.084       .  S
C550        C551   1.408       .  A
C551        C552   1.405       .  A
C551        F558   1.357       .  S
C552        C553   1.406       .  A
C552        H557   1.083       .  S
C553        C554   1.401       .  A
C554        F555   1.357       .  S
C559        C560   1.401       .  A
C559        C564   1.399   1_554  A
C559        H566   1.083       .  S
C560        C561   1.413       .  A
C561        C562   1.404       .  A
C561        F568   1.357       .  S
C562        C563   1.404   1_554  A
C562        H567   1.083       .  S
C563        C564   1.417       .  A
C564        F565   1.358       .  S
C569        C570   1.407       .  A
C569        C574   1.387       .  A
C569        H576   1.082       .  S
C570        C571   1.409       .  A
C571        C572   1.406       .  A
C571        F578   1.357       .  S
C572        C573   1.408       .  A
C572        H577   1.083       .  S
C573        C574   1.399       .  A
C574        F575   1.356       .  S
C579        C580   1.403       .  A
C579        C584   1.396       .  A
C579        H586   1.083   1_455  S
C580        C581   1.415       .  A
C581        C582   1.404       .  A
C581        F588   1.357       .  S
C582        C583   1.404       .  A
C582        H587   1.083       .  S
C583        C584   1.413       .  A
C584        F585   1.358       .  S
C589        C590   1.410       .  A
C589        C594   1.385       .  A
C589        H596   1.083       .  S
C590        C591   1.407       .  A
C591        C592   1.407       .  A
C591        F598   1.357       .  S
C592        C593   1.410       .  A
C592        H597   1.083       .  S
C593        C594   1.400       .  A
C594        F595   1.357       .  S
C599        C600   1.399       .  A
C599        C604   1.391       .  A
C599        H606   1.083       .  S
C600        C601   1.406       .  A
C601        C602   1.403       .  A
C601        F608   1.357       .  S
C602        C603   1.406       .  A
C602        H607   1.084       .  S
C603        C604   1.406       .  A
C604        F605   1.356       .  S
C609        C610   1.402       .  A
C609        C614   1.404       .  A
C609        H616   1.083       .  S
C610        C611   1.411       .  A
C611        C612   1.400       .  A
C611        F618   1.358       .  S
C612        C613   1.405       .  A
C612        H617   1.083       .  S
C613        C614   1.417       .  A
C614        F615   1.357       .  S
C619        C620   1.402       .  A
C619        C624   1.398   1_545  A
C619        H626   1.083       .  S
C620        C621   1.415       .  A
C621        C622   1.407       .  A
C621        F628   1.357       .  S
C622        C623   1.406   1_545  A
C622        H627   1.083       .  S
C623        C624   1.416       .  A
C624        F625   1.358       .  S
C629        C630   1.406       .  A
C629        C634   1.389       .  A
C629        H636   1.079       .  S
C630        C631   1.409       .  A
C631        C632   1.409       .  A
C631        F638   1.357       .  S
C632        C633   1.409       .  A
C632        H637   1.083       .  S
C633        C634   1.400       .  A
C634        F635   1.358       .  S
C639        C640   1.405       .  A
C639        C644   1.405       .  A
C639        H646   1.083       .  S
C640        C641   1.413       .  A
C641        C642   1.398       .  A
C641        F648   1.357       .  S
C642        C643   1.403       .  A
C642        H647   1.083       .  S
C643        C644   1.416       .  A
C644        F645   1.358       .  S
C649        C650   1.401       .  A
C649        C654   1.402   1_554  A
C649        H656   1.083       .  S
C650        C651   1.411   1_554  A
C651        C652   1.399       .  A
C651        F658   1.358       .  S
C652        C653   1.404       .  A
C652        H657   1.083       .  S
C653        C654   1.417       .  A
C654        F655   1.357   1_556  S
C659        C660   1.408       .  A
C659        C664   1.386       .  A
C659        H666   1.084       .  S
C660        C661   1.409       .  A
C661        C662   1.405       .  A
C661        F668   1.357       .  S
C662        C663   1.408       .  A
C662        H667   1.083       .  S
C663        C664   1.398       .  A
C664        F665   1.355       .  S
C669        C670   1.400       .  A
C669        C674   1.407       .  A
C669        H676   1.083       .  S
C670        C671   1.410       .  A
C671        C672   1.389       .  A
C671        F678   1.358       .  S
C672        C673   1.398       .  A
C672        H677   1.083       .  S
C673        C674   1.418       .  A
C674        F675   1.358       .  S
C679        C680   1.411       .  A
C679        C684   1.400       .  A
C679        H686   1.083       .  S
C680        C681   1.409       .  A
C681        C682   1.401       .  A
C681        F688   1.357       .  S
C682        C683   1.408       .  A
C682        H687   1.083       .  S
C683        C684   1.405       .  A
C684        F685   1.358       .  S
C689        C690   1.405       .  A
C689        C694   1.400       .  A
C689        H696   1.083       .  S
C690        C691   1.416       .  A
C691        C692   1.403       .  A
C691        F698   1.357       .  S
C692        C693   1.403       .  A
C692        H697   1.083       .  S
C693        C694   1.412       .  A
C694        F695   1.358       .  S
C699        C700   1.406       .  A
C699        C704   1.402       .  A
C699        H706   1.083   1_556  S
C700        C701   1.416       .  A
C701        C702   1.404       .  A
C701        F708   1.357       .  S
C702        C703   1.403       .  A
C702        H707   1.083       .  S
C703        C704   1.411       .  A
C704        F705   1.358       .  S
C709        C710   1.409       .  A
C709        C714   1.397       .  A
C709        H716   1.083       .  S
C710        C711   1.406       .  A
C711        C712   1.404       .  A
C711        F718   1.357       .  S
C712        C713   1.413       .  A
C712        H717   1.083       .  S
C713        C714   1.406       .  A
C714        F715   1.357       .  S
C719        C720   1.406       .  A
C719        C724   1.390       .  A
C719        H726   1.082       .  S
C720        C721   1.409       .  A
C721        C722   1.408       .  A
C721        F728   1.357       .  S
C722        C723   1.407       .  A
C722        H727   1.083       .  S
C723        C724   1.401       .  A
C724        F725   1.357       .  S
C729        C730   1.413       .  A
C729        C734   1.404   1_455  A
C729        H736   1.083       .  S
C730        C731   1.402       .  A
C731        C732   1.397   1_455  A
C731        F738   1.357       .  S
C732        C733   1.413       .  A
C732        H737   1.083       .  S
C733        C734   1.406       .  A
C734        F735   1.357       .  S
C739        C740   1.401       .  A
C739        C744   1.401   1_545  A
C739        H746   1.083       .  S
C740        C741   1.409   1_545  A
C741        C742   1.399       .  A
C741        F748   1.358   1_655  S
C742        C743   1.405       .  A
C742        H747   1.083       .  S
C743        C744   1.416       .  A
C744        F745   1.358   1_565  S
C749        C750   1.408       .  A
C749        C754   1.387       .  A
C749        H756   1.084       .  S
C750        C751   1.409       .  A
C751        C752   1.407       .  A
C751        F758   1.357       .  S
C752        C753   1.409       .  A
C752        H757   1.083       .  S
C753        C754   1.400       .  A
C754        F755   1.356       .  S
C759        C760   1.398       .  A
C759        C764   1.386       .  A
C759        H766   1.083       .  S
C760        C761   1.417       .  A
C761        C762   1.409       .  A
C761        F768   1.357       .  S
C762        C763   1.403       .  A
C762        H767   1.083       .  S
C763        C764   1.414       .  A
C764        F765   1.359       .  S
C769        C770   1.408       .  A
C769        C774   1.400       .  A
C769        H776   1.083       .  S
C770        C771   1.414       .  A
C771        C772   1.412       .  A
C771        F778   1.357       .  S
C772        C773   1.411       .  A
C772        H777   1.083       .  S
C773        C774   1.412       .  A
C774        F775   1.358       .  S
C779        C780   1.409       .  A
C779        C784   1.399       .  A
C779        H786   1.083       .  S
C780        C781   1.412       .  A
C781        C782   1.409       .  A
C781        F788   1.357       .  S
C782        C783   1.410       .  A
C782        H787   1.083       .  S
C783        C784   1.408       .  A
C784        F785   1.358       .  S
C789        C790   1.408       .  A
C789        C794   1.400       .  A
C789        H796   1.083       .  S
C790        C791   1.413       .  A
C791        C792   1.409       .  A
C791        F798   1.357       .  S
C792        C793   1.409       .  A
C792        H797   1.083   1_655  S
C793        C794   1.411       .  A
C794        F795   1.358       .  S
C799        C800   1.400       .  A
C799        C804   1.396       .  A
C799        H806   1.081       .  S
C800        C801   1.405       .  A
C801        C802   1.406       .  A
C801        F808   1.357       .  S
C802        C803   1.407       .  A
C802        H807   1.083       .  S
C803        C804   1.406       .  A
C804        F805   1.358       .  S
C809        C810   1.410       .  A
C809        C814   1.408       .  A
C809        H816   1.083       .  S
C810        C811   1.409       .  A
C811        C812   1.396       .  A
C811        F818   1.358       .  S
C812        C813   1.408       .  A
C812        H817   1.083       .  S
C813        C814   1.412       .  A
C814        F815   1.357       .  S
C819        C820   1.409       .  A
C819        C824   1.408       .  A
C819        H826   1.083       .  S
C820        C821   1.413       .  A
C821        C822   1.398       .  A
C821        F828   1.358       .  S
C822        C823   1.404       .  A
C822        H827   1.083       .  S
C823        C824   1.412       .  A
C824        F825   1.357       .  S
C829        C830   1.398       .  A
C829        C834   1.391       .  A
C829        H836   1.083       .  S
C830        C831   1.409       .  A
C831        C832   1.406       .  A
C831        F838   1.357       .  S
C832        C833   1.406       .  A
C832        H837   1.083       .  S
C833        C834   1.410       .  A
C834        F835   1.357       .  S
C839        C840   1.407       .  A
C839        C844   1.408       .  A
C839        H846   1.083       .  S
C840        C841   1.416       .  A
C841        C842   1.385       .  A
C841        F848   1.356       .  S
C842        C843   1.394       .  A
C842        H847   1.083       .  S
C843        C844   1.410       .  A
C844        F845   1.357       .  S
C849        C850   1.408       .  A
C849        C854   1.397       .  A
C849        H856   1.083       .  S
C850        C851   1.412       .  A
C851        C852   1.408       .  A
C851        F858   1.357       .  S
C852        C853   1.409       .  A
C852        H857   1.083       .  S
C853        C854   1.410       .  A
C854        F855   1.358       .  S
C859        C860   1.410       .  A
C859        C864   1.408       .  A
C859        H866   1.083       .  S
C860        C861   1.412       .  A
C861        C862   1.397       .  A
C861        F868   1.357       .  S
C862        C863   1.405       .  A
C862        H867   1.083       .  S
C863        C864   1.413       .  A
C864        F865   1.357       .  S
C869        C870   1.405       .  A
C869        C874   1.399       .  A
C869        H876   1.083       .  S
C870        C871   1.412       .  A
C871        C872   1.407       .  A
C871        F878   1.357       .  S
C872        C873   1.409       .  A
C872        H877   1.083       .  S
C873        C874   1.413       .  A
C874        F875   1.358       .  S
C879        C880   1.405       .  A
C879        C884   1.397       .  A
C879        H886   1.084       .  S
C880        C881   1.411   1_554  A
C881        C882   1.408   1_556  A
C881        F888   1.357       .  S
C882        C883   1.410       .  A
C882        H887   1.083       .  S
C883        C884   1.412       .  A
C884        F885   1.358       .  S
C889        C890   1.405       .  A
C889        C894   1.400   1_454  A
C889        H896   1.083       .  S
C890        C891   1.417   1_455  A
C891        C892   1.406       .  A
C891        F898   1.357       .  S
C892        C893   1.403   1_554  A
C892        H897   1.083       .  S
C893        C894   1.412       .  A
C894        F895   1.358       .  S
C899        C900   1.404       .  A
C899        C904   1.405       .  A
C899        H906   1.083       .  S
C900        C901   1.402       .  A
C901        C902   1.391       .  A
C901        F908   1.356       .  S
C902        C903   1.404       .  A
C902        H907   1.084       .  S
C903        C904   1.409       .  A
C904        F905   1.357       .  S
C909        C910   1.409       .  A
C909        C914   1.400       .  A
C909        H916   1.083       .  S
C910        C911   1.411       .  A
C911        C912   1.403       .  A
C911        F918   1.357       .  S
C912        C913   1.407       .  A
C912        H917   1.083   1_655  S
C913        C914   1.407       .  A
C914        F915   1.358       .  S
C919        C920   1.408       .  A
C919        C924   1.398       .  A
C919        H926   1.083       .  S
C920        C921   1.412       .  A
C921        C922   1.408       .  A
C921        F928   1.357       .  S
C922        C923   1.409       .  A
C922        H927   1.083       .  S
C923        C924   1.410       .  A
C924        F925   1.358       .  S
C929        C930   1.406       .  A
C929        C934   1.405       .  A
C929        H936   1.083       .  S
C930        C931   1.416       .  A
C931        C932   1.398       .  A
C931        F938   1.357       .  S
C932        C933   1.401       .  A
C932        H937   1.083       .  S
C933        C934   1.415       .  A
C934        F935   1.358       .  S
C939        C940   1.402       .  A
C939        C944   1.408       .  A
C939        H946   1.083       .  S
C940        C941   1.414       .  A
C941        C942   1.387       .  A
C941        F948   1.359       .  S
C942        C943   1.398       .  A
C942        H947   1.083       .  S
C943        C944   1.418       .  A
C944        F945   1.357       .  S
C949        C950   1.405       .  A
C949        C954   1.402       .  A
C949        H956   1.083       .  S
C950        C951   1.410       .  A
C951        C952   1.393       .  A
C951        F958   1.359       .  S
C952        C953   1.399       .  A
C952        H957   1.084       .  S
C953        C954   1.407       .  A
C954        F955   1.357       .  S
C959        C960   1.405   1_545  A
C959        C964   1.398       .  A
C959        H966   1.083       .  S
C960        C961   1.413       .  A
C961        C962   1.411   1_565  A
C961        F968   1.357       .  S
C962        C963   1.410       .  A
C962        H967   1.083       .  S
C963        C964   1.413       .  A
C964        F965   1.358       .  S
C969        C970   1.404       .  A
C969        C974   1.396       .  A
C969        H976   1.083       .  S
C970        C971   1.412       .  A
C971        C972   1.408       .  A
C971        F978   1.357       .  S
C972        C973   1.409       .  A
C972        H977   1.083       .  S
C973        C974   1.414       .  A
C974        F975   1.358       .  S
C979        C980   1.409       .  A
C979        C984   1.399       .  A
C979        H986   1.083       .  S
C980        C981   1.407       .  A
C981        C982   1.404       .  A
C981        F988   1.357       .  S
C982        C983   1.412       .  A
C982        H987   1.083       .  S
C983        C984   1.408       .  A
C984        F985   1.357       .  S
C989        C990   1.405       .  A
C989        C994   1.400       .  A
C989        H996   1.083       .  S
C990        C991   1.412       .  A
C991        C992   1.407       .  A
C991        F998   1.357       .  S
C992        C993   1.409       .  A
C992        H997   1.083       .  S
C993        C994   1.414       .  A
C994        F995   1.358       .  S
C999       C1000   1.405       .  A
C999       C1004   1.399       .  A
C999       H1006   1.083       .  S
C1000      C1001   1.413       .  A
C1001      C1002   1.412       .  A
C1001      F1008   1.357       .  S
C1002      C1003   1.410       .  A
C1002      H1007   1.083       .  S
C1003      C1004   1.414       .  A
C1004      F1005   1.358       .  S
C1009      C1010   1.411       .  A
C1009      C1014   1.386       .  A
C1009      H1016   1.083       .  S
C1010      C1011   1.407       .  A
C1011      C1012   1.408       .  A
C1011      F1018   1.357       .  S
C1012      C1013   1.410       .  A
C1012      H1017   1.083       .  S
C1013      C1014   1.400       .  A
C1014      F1015   1.358       .  S
C1019      C1020   1.406       .  A
C1019      C1024   1.401       .  A
C1019      H1026   1.083       .  S
C1020      C1021   1.413       .  A
C1021      C1022   1.409       .  A
C1021      F1028   1.357       .  S
C1022      C1023   1.409       .  A
C1022      H1027   1.083       .  S
C1023      C1024   1.415       .  A
C1024      F1025   1.358       .  S
C1029      C1030   1.411       .  A
C1029      C1034   1.402       .  A
C1029      H1036   1.083       .  S
C1030      C1031   1.407       .  A
C1031      C1032   1.401       .  A
C1031      F1038   1.357       .  S
C1032      C1033   1.412       .  A
C1032      H1037   1.083       .  S
C1033      C1034   1.407       .  A
C1034      F1035   1.357       .  S
C1039      C1040   1.409       .  A
C1039      C1044   1.404       .  A
C1039      H1046   1.083       .  S
C1040      C1041   1.408       .  A
C1041      C1042   1.398       .  A
C1041      F1048   1.358       .  S
C1042      C1043   1.410       .  A
C1042      H1047   1.083       .  S
C1043      C1044   1.410       .  A
C1044      F1045   1.357       .  S
C1049      C1050   1.405       .  A
C1049      C1054   1.401   1_554  A
C1049      H1056   1.083       .  S
C1050      C1051   1.415       .  A
C1051      C1052   1.399   1_554  A
C1051      F1058   1.358       .  S
C1052      C1053   1.404       .  A
C1052      H1057   1.083       .  S
C1053      C1054   1.413       .  A
C1054      F1055   1.357       .  S
C1059      C1060   1.402       .  A
C1059      C1064   1.402       .  A
C1059      H1066   1.083       .  S
C1060      C1061   1.411       .  A
C1061      C1062   1.402       .  A
C1061      F1068   1.358   1_655  S
C1062      C1063   1.406       .  A
C1062      H1067   1.083       .  S
C1063      C1064   1.416       .  A
C1064      F1065   1.357       .  S
C1069      C1070   1.399       .  A
C1069      C1074   1.393       .  A
C1069      H1076   1.079       .  S
C1070      C1071   1.405       .  A
C1071      C1072   1.403       .  A
C1071      F1078   1.357       .  S
C1072      C1073   1.406       .  A
C1072      H1077   1.080       .  S
C1073      C1074   1.409       .  A
C1074      F1075   1.358       .  S
C1079      C1080   1.406       .  A
C1079      C1084   1.404       .  A
C1079      H1086   1.083       .  S
C1080      C1081   1.406       .  A
C1081      C1082   1.394       .  A
C1081      F1088   1.357       .  S
C1082      C1083   1.400       .  A
C1082      H1087   1.084       .  S
C1083      C1084   1.405       .  A
C1084      F1085   1.357       .  S
C1089      C1090   1.410       .  A
C1089      C1094   1.401       .  A
C1089      H1096   1.083       .  S
C1090      C1091   1.412       .  A
C1091      C1092   1.409       .  A
C1091      F1098   1.357       .  S
C1092      C1093   1.411       .  A
C1092      H1097   1.083   1_554  S
C1093      C1094   1.409       .  A
C1094      F1095   1.358       .  S
C1099      C1100   1.409       .  A
C1099      C1104   1.408       .  A
C1099      H1106   1.083       .  S
C1100      C1101   1.414       .  A
C1101      C1102   1.399       .  A
C1101      F1108   1.358       .  S
C1102      C1103   1.404       .  A
C1102      H1107   1.083       .  S
C1103      C1104   1.412       .  A
C1104      F1105   1.357       .  S
C1109      C1110   1.409       .  A
C1109      C1114   1.407       .  A
C1109      H1116   1.083       .  S
C1110      C1111   1.413       .  A
C1111      C1112   1.397       .  A
C1111      F1118   1.358       .  S
C1112      C1113   1.406       .  A
C1112      H1117   1.083       .  S
C1113      C1114   1.412       .  A
C1114      F1115   1.357       .  S
C1119      C1120   1.403       .  A
C1119      C1124   1.403       .  A
C1119      H1126   1.083       .  S
C1120      C1121   1.409       .  A
C1121      C1122   1.399       .  A
C1121      F1128   1.358       .  S
C1122      C1123   1.406       .  A
C1122      H1127   1.083       .  S
C1123      C1124   1.415       .  A
C1124      F1125   1.357       .  S
C1129      C1130   1.404       .  A
C1129      C1134   1.403       .  A
C1129      H1136   1.083       .  S
C1130      C1131   1.417       .  A
C1131      C1132   1.402       .  A
C1131      F1138   1.357       .  S
C1132      C1133   1.402       .  A
C1132      H1137   1.083       .  S
C1133      C1134   1.416       .  A
C1134      F1135   1.358       .  S
C1139      C1140   1.405   1_545  A
C1139      C1144   1.397       .  A
C1139      H1146   1.083       .  S
C1140      C1141   1.413       .  A
C1141      C1142   1.409   1_565  A
C1141      F1148   1.357       .  S
C1142      C1143   1.409       .  A
C1142      H1147   1.083       .  S
C1143      C1144   1.413       .  A
C1144      F1145   1.358       .  S
C1149      C1150   1.403   1_545  A
C1149      C1154   1.401       .  A
C1149      H1156   1.083       .  S
C1150      C1151   1.411       .  A
C1151      C1152   1.399   1_565  A
C1151      F1158   1.358       .  S
C1152      C1153   1.404       .  A
C1152      H1157   1.083   1_556  S
C1153      C1154   1.415       .  A
C1154      F1155   1.357       .  S
C1159      C1160   1.413       .  A
C1159      C1164   1.406   1_565  A
C1159      H1166   1.083       .  S
C1160      C1161   1.408       .  A
C1161      C1162   1.398       .  A
C1161      F1168   1.357       .  S
C1162      C1163   1.408   1_565  A
C1162      H1167   1.083       .  S
C1163      C1164   1.407       .  A
C1164      F1165   1.358       .  S
C1169      C1170   1.399       .  A
C1169      C1174   1.391       .  A
C1169      H1176   1.083       .  S
C1170      C1171   1.407       .  A
C1171      C1172   1.403       .  A
C1171      F1178   1.357       .  S
C1172      C1173   1.405       .  A
C1172      H1177   1.083       .  S
C1173      C1174   1.409       .  A
C1174      F1175   1.359       .  S
C1179      C1180   1.404       .  A
C1179      C1184   1.397       .  A
C1179      H1186   1.083       .  S
C1180      C1181   1.413       .  A
C1181      C1182   1.410       .  A
C1181      F1188   1.357       .  S
C1182      C1183   1.410       .  A
C1182      H1187   1.083       .  S
C1183      C1184   1.413       .  A
C1184      F1185   1.358       .  S
C1189      C1190   1.410       .  A
C1189      C1194   1.401       .  A
C1189      H1196   1.083       .  S
C1190      C1191   1.410       .  A
C1191      C1192   1.406       .  A
C1191      F1198   1.356       .  S
C1192      C1193   1.409       .  A
C1192      H1197   1.083       .  S
C1193      C1194   1.410       .  A
C1194      F1195   1.358       .  S
C1199      C1200   1.405       .  A
C1199      C1204   1.401       .  A
C1199      H1206   1.083       .  S
C1200      C1201   1.418       .  A
C1201      C1202   1.407       .  A
C1201      F1208   1.357       .  S
C1202      C1203   1.404       .  A
C1202      H1207   1.083       .  S
C1203      C1204   1.412       .  A
C1204      F1205   1.358       .  S
C1209      C1210   1.411       .  A
C1209      C1214   1.398       .  A
C1209      H1216   1.083       .  S
C1210      C1211   1.405       .  A
C1211      C1212   1.402       .  A
C1211      F1218   1.357       .  S
C1212      C1213   1.411       .  A
C1212      H1217   1.083       .  S
C1213      C1214   1.404       .  A
C1214      F1215   1.357       .  S
C1219      C1220   1.404       .  A
C1219      C1224   1.402       .  A
C1219      H1226   1.083       .  S
C1220      C1221   1.402       .  A
C1221      C1222   1.392       .  A
C1221      F1228   1.357       .  S
C1222      C1223   1.406       .  A
C1222      H1227   1.084       .  S
C1223      C1224   1.407       .  A
C1224      F1225   1.357       .  S
C1229      C1230   1.398       .  A
C1229      C1234   1.388       .  A
C1229      H1236   1.083       .  S
C1230      C1231   1.418       .  A
C1231      C1232   1.407       .  A
C1231      F1238   1.357       .  S
C1232      C1233   1.400       .  A
C1232      H1237   1.083       .  S
C1233      C1234   1.411       .  A
C1234      F1235   1.359       .  S
C1239      C1240   1.410       .  A
C1239      C1244   1.409       .  A
C1239      H1246   1.083       .  S
C1240      C1241   1.413       .  A
C1241      C1242   1.399       .  A
C1241      F1248   1.358       .  S
C1242      C1243   1.406       .  A
C1242      H1247   1.083       .  S
C1243      C1244   1.413       .  A
C1244      F1245   1.357       .  S
