geometry optimzed in LAMMPS
_audit_creation_date              2020-12-01 
_audit_creation_method            'lammps2cif' 
_symmetry_space_group_name_H-M    'P1' 
_symmetry_Int_Tables_number       1 
_symmetry_cell_setting            triclinic 
loop_ 
_symmetry_equiv_pos_as_xyz 
  x,y,z 
_cell_length_a                    53.62932293 
_cell_length_b                    53.42496016299911 
_cell_length_c                    53.43390831711996 
_cell_angle_alpha                 90.25196345361236 
_cell_angle_beta                  90.07543467609645 
_cell_angle_gamma                 90.03188577823586 
loop_ 
_atom_site_label 
_atom_site_type_symbol 
_atom_site_fract_x 
_atom_site_fract_y 
_atom_site_fract_z 
_atom_site_charge 
O1          O  0.47047278  0.63574757  0.01130804    -0.73400
O2          O  0.52488544  0.68635157  0.02072726    -0.74400
O3          O  0.47090829  0.68710597  0.02016246    -0.63000
O4          O  0.52324159  0.63472637  0.01197631    -0.71400
O5          O  0.52414492  0.64116826  0.97101824    -0.71000
O6          O  0.47154935  0.69401791  0.97914866    -0.62200
O7          O  0.52548959  0.69323073  0.97974075    -0.74800
O8          O  0.47089278  0.64225570  0.97035736    -0.73500
Cu9        Cu  0.49739521  0.66097777  0.01746247     1.04600
Cu10       Cu  0.49806890  0.66811919  0.97364593     1.04300
C11         C  0.46188464  0.63111555  0.98945674     0.92800
C12         C  0.53480704  0.69643239  0.00153342     0.91900
C13         C  0.46161399  0.69711439  0.00063966     0.84100
C14         C  0.53207116  0.62962471  0.99037026     0.90300
C15         C  0.77564681  0.53739198  0.00553959     0.86000
C16         C  0.79449206  0.53539666  0.02736411    -0.54200
C17         C  0.80938770  0.51445902  0.02657734     0.08900
C18         C  0.80431472  0.49770150  0.00345762     0.19900
C19         C  0.79199332  0.53587779  0.98194360    -0.55000
C20         C  0.80702149  0.51518873  0.98070287     0.09000
C21         C  0.76156320  0.51243423  0.00612978    -0.54500
C22         C  0.77642707  0.49182678  0.00488912     0.09600
H23         H  0.79640242  0.54929736  0.04196575     0.14100
H24         H  0.81569217  0.48043465  0.00225344    -0.00100
H25         H  0.79183126  0.55023310  0.96762347     0.14400
H26         H  0.74133620  0.51115431  0.00672065     0.14200
C27         C  0.60499617  0.70639664  0.00596009     0.86000
C28         C  0.60450185  0.72359755  0.98286713    -0.54200
C29         C  0.58403147  0.73902639  0.98125931     0.08900
C30         C  0.56593098  0.73583424  0.00358475     0.19900
C31         C  0.60257107  0.72465715  0.02827985    -0.55000
C32         C  0.58223817  0.74008231  0.02708597     0.09000
C33         C  0.58002120  0.69259787  0.00525189    -0.54500
C34         C  0.55968297  0.70773527  0.00394411     0.09600
H35         H  0.61949660  0.72357096  0.96927576     0.14100
H36         H  0.54897909  0.74766329  0.00300776    -0.00100
H37         H  0.61586610  0.72625381  0.04344451     0.14400
H38         H  0.57854005  0.67229464  0.00526837     0.14200
O39         O  0.70428102  0.45498840  0.01430959    -0.73400
O40         O  0.75717431  0.40256904  0.02174218    -0.74400
O41         O  0.75559865  0.45698460  0.02231066    -0.63000
O42         O  0.70584926  0.40181370  0.01373029    -0.71400
O43         O  0.71180796  0.40224572  0.97267405    -0.71000
O44         O  0.76237285  0.45707444  0.98126490    -0.62200
O45         O  0.76354882  0.40288127  0.98064835    -0.74800
O46         O  0.71079071  0.45583211  0.97334273    -0.73500
Cu47       Cu  0.73072753  0.42908937  0.01945874     1.04600
Cu48       Cu  0.73753420  0.42953369  0.97557216     1.04300
C49         C  0.69943922  0.46402167  0.99274831     0.92800
C50         C  0.76704361  0.39309449  0.00213029     0.91900
C51         C  0.76531634  0.46684130  0.00291019     0.84100
C52         C  0.70112840  0.39306725  0.99194851     0.90300
C53         C  0.60508821  0.15314938  0.00150158     0.86000
C54         C  0.60376304  0.13374043  0.02279794    -0.54200
C55         C  0.58352356  0.11804424  0.02151662     0.08900
C56         C  0.56620186  0.12345198  0.99910830     0.19900
C57         C  0.60369642  0.13720323  0.97746356    -0.55000
C58         C  0.58349384  0.12150412  0.97615321     0.09000
C59         C  0.57997773  0.16666080  0.00285352    -0.54500
C60         C  0.55973781  0.15135288  0.00144470     0.09600
H61         H  0.61727651  0.13225498  0.03772216     0.14100
H62         H  0.54946725  0.11131637  0.99785658    -0.00100
H63         H  0.61809355  0.13772400  0.96321460     0.14400
H64         H  0.57831151  0.18692097  0.00396070     0.14200
C65         C  0.77554195  0.32231698  0.00352686     0.86000
C66         C  0.79184918  0.32344308  0.97989678    -0.54200
C67         C  0.80766172  0.34361012  0.97881166     0.08900
C68         C  0.80567630  0.36102095  0.00197306     0.19900
C69         C  0.79434059  0.32355320  0.02536742    -0.55000
C70         C  0.80999726  0.34379592  0.02473660     0.09000
C71         C  0.76236424  0.34772246  0.00455059    -0.54500
C72         C  0.77788035  0.36788590  0.00355346     0.09600
H73         H  0.79104188  0.30910446  0.96546664     0.14100
H74         H  0.81796387  0.37772448  0.00152357    -0.00100
H75         H  0.79545277  0.31007993  0.04036474     0.14400
H76         H  0.74219355  0.34964029  0.00532580     0.14200
O77         O  0.52418867  0.22386585  0.01129520    -0.73400
O78         O  0.47100466  0.17201773  0.01890084    -0.74400
O79         O  0.52508178  0.17228157  0.01913671    -0.63000
O80         O  0.47124409  0.22347762  0.01110407    -0.71400
O81         O  0.47088041  0.21697837  0.97008733    -0.71000
O82         O  0.52518212  0.16571590  0.97802408    -0.62200
O83         O  0.47126878  0.16518776  0.97782007    -0.74800
O84         O  0.52439766  0.21766198  0.97023427    -0.73500
Cu85       Cu  0.49789107  0.19792659  0.01653234     1.04600
Cu86       Cu  0.49796043  0.19099543  0.97261615     1.04300
C87         C  0.53297400  0.22878633  0.98966410     0.92800
C88         C  0.46151672  0.16200947  0.99935182     0.91900
C89         C  0.53477334  0.16241124  0.99964199     0.84100
C90         C  0.46213159  0.22796727  0.98948819     0.90300
C91         C  0.22176953  0.32199092  0.00365797     0.86000
C92         C  0.20379404  0.32381135  0.02609165    -0.54200
C93         C  0.18772699  0.34373629  0.02514697     0.08900
C94         C  0.19096280  0.36002626  0.00150210     0.19900
C95         C  0.20449131  0.32169271  0.98073496    -0.55000
C96         C  0.18829462  0.34150914  0.97921419     0.09000
C97         C  0.23453927  0.34758542  0.00305331    -0.54500
C98         C  0.21866006  0.36739726  0.00181995     0.09600
H99         H  0.20328818  0.31068826  0.04141656     0.14100
H100        H  0.17856534  0.37659405  0.00082907    -0.00100
H101        H  0.20491849  0.30646318  0.96726238     0.14400
H102        H  0.25469152  0.34986859  0.00318488     0.14200
C103        C  0.39124409  0.15275783  0.00215501     0.86000
C104        C  0.39192264  0.13561937  0.97903061    -0.54200
C105        C  0.41222945  0.12000783  0.97767487     0.08900
C106        C  0.43011694  0.12309542  0.00027203     0.19900
C107        C  0.39319685  0.13454942  0.02438762    -0.55000
C108        C  0.41356492  0.11906648  0.02355650     0.09000
C109        C  0.41634098  0.16637257  0.00210789    -0.54500
C110        C  0.43653884  0.15104854  0.00099037     0.09600
H111        H  0.37696514  0.13570674  0.96536985     0.14100
H112        H  0.44708742  0.11131238  0.99981785    -0.00100
H113        H  0.37978521  0.13339296  0.03941255     0.14400
H114        H  0.41802329  0.18665885  0.00244570     0.14200
C115        C  0.21970483  0.53730052  0.00121623     0.86000
C116        C  0.20153071  0.53581894  0.97880860    -0.54200
C117        C  0.18651591  0.51500575  0.97830920     0.08900
C118        C  0.19077877  0.49765396  0.00103889     0.19900
C119        C  0.20255244  0.53542283  0.02413991    -0.55000
C120        C  0.18733190  0.51473472  0.02428394     0.09000
C121        C  0.23368618  0.51231341  0.00055748    -0.54500
C122        C  0.21876004  0.49169830  0.00056206     0.09600
H123        H  0.19975040  0.55030596  0.96495361     0.14100
H124        H  0.17930042  0.48041448  0.00116224    -0.00100
H125        H  0.20229329  0.54962253  0.03872481     0.14400
H126        H  0.25391013  0.51101720  0.99994158     0.14200
C127        C  0.39125822  0.70591026  0.00037570     0.86000
C128        C  0.39165293  0.72408016  0.02282484    -0.54200
C129        C  0.41203673  0.73962306  0.02368621     0.08900
C130        C  0.43016415  0.73574215  0.00156219     0.19900
C131        C  0.39355629  0.72328775  0.97745371    -0.55000
C132        C  0.41381356  0.73893995  0.97805887     0.09000
C133        C  0.41636955  0.69239690  0.00160696    -0.54500
C134        C  0.43658844  0.70784282  0.00209011     0.09600
H135        H  0.37720854  0.72421971  0.03703542     0.14100
H136        H  0.44671635  0.74819911  0.00204534    -0.00100
H137        H  0.38035995  0.72382704  0.96216415     0.14400
H138        H  0.41805641  0.67211388  0.00137046     0.14200
O139        O  0.28502438  0.45498894  0.96984284    -0.73400
O140        O  0.23221490  0.40225529  0.97826721    -0.74400
O141        O  0.23324748  0.45656500  0.97763201    -0.63000
O142        O  0.28388380  0.40155455  0.97042210    -0.71400
O143        O  0.29027186  0.40242159  0.01142162    -0.71000
O144        O  0.23957607  0.45713161  0.01874769    -0.62200
O145        O  0.23886528  0.40269567  0.01933926    -0.74800
O146        O  0.29102807  0.45562689  0.01090774    -0.73500
Cu147      Cu  0.25816681  0.42885077  0.97264293     1.04600
Cu148      Cu  0.26492607  0.42950626  0.01654528     1.04300
C149        C  0.29619219  0.46383621  0.98910286     0.92800
C150        C  0.22900747  0.39276864  0.99991914     0.91900
C151        C  0.22993868  0.46663016  0.99908995     0.84100
C152        C  0.29489257  0.39309144  0.98985733     0.90300
O153        O  0.47175285  0.95228962  0.76832715    -0.73400
O154        O  0.52513013  0.96484778  0.71700316    -0.74400
O155        O  0.47182647  0.96501898  0.71716044    -0.63000
O156        O  0.52593174  0.95236187  0.76815492    -0.71400
O157        O  0.52585057  0.91203883  0.75777623    -0.71000
O158        O  0.47232633  0.92477297  0.70689916    -0.62200
O159        O  0.52508217  0.92448481  0.70715088    -0.74800
O160        O  0.47164942  0.91205510  0.75754204    -0.73500
Cu161      Cu  0.49866142  0.96001457  0.74324025     1.04600
Cu162      Cu  0.49870893  0.91692897  0.73225379     1.04300
C163        C  0.46205389  0.93047243  0.76936746     0.92800
C164        C  0.53364580  0.94655187  0.70407758     0.91900
C165        C  0.46355523  0.94680102  0.70392637     0.84100
C166        C  0.53561060  0.93055255  0.76941088     0.90300
C167        C  0.77496459  0.92835795  0.60844454     0.86000
C168        C  0.79268184  0.90581360  0.60610643    -0.54200
C169        C  0.80730961  0.90583925  0.58511352     0.08900
C170        C  0.80310106  0.92908097  0.56833815     0.19900
C171        C  0.79240605  0.95118115  0.60687957    -0.55000
C172        C  0.80714632  0.95186571  0.58590243     0.09000
C173        C  0.76045806  0.92846855  0.58375265    -0.54500
C174        C  0.77492252  0.92910912  0.56285804     0.09600
H175        H  0.79452009  0.89138243  0.62007742     0.14100
H176        H  0.81443162  0.92933192  0.55100091    -0.00100
H177        H  0.79306495  0.96539450  0.62143743     0.14400
H178        H  0.74020659  0.92910951  0.58288444     0.14200
C179        C  0.60612289  0.92626524  0.77809648     0.86000
C180        C  0.60568824  0.94914698  0.79554224    -0.54200
C181        C  0.58561610  0.95023156  0.81129268     0.08900
C182        C  0.56752572  0.92783618  0.80817271     0.19900
C183        C  0.60422527  0.90373734  0.79594561    -0.55000
C184        C  0.58392694  0.90418136  0.81158620     0.09000
C185        C  0.58084038  0.92664672  0.76469693    -0.54500
C186        C  0.56071976  0.92768992  0.78020346     0.09600
H187        H  0.62030732  0.96322003  0.79546252     0.14100
H188        H  0.55083681  0.92876551  0.82036566    -0.00100
H189        H  0.61771040  0.88877128  0.79663088     0.14400
H190        H  0.57900333  0.92687984  0.74443054     0.14200
O191        O  0.70083517  0.92824715  0.52850188    -0.73400
O192        O  0.75063002  0.91613453  0.47401735    -0.74400
O193        O  0.75110182  0.91480512  0.52822290    -0.63000
O194        O  0.70009004  0.92942235  0.47509039    -0.71400
O195        O  0.71084134  0.96948262  0.47548158    -0.71000
O196        O  0.76148143  0.95506185  0.52952009    -0.62200
O197        O  0.76174532  0.95620180  0.47540088    -0.74800
O198        O  0.71060483  0.96860064  0.52911728    -0.73500
Cu199      Cu  0.72546318  0.92074811  0.50140915     1.04600
Cu200      Cu  0.73668834  0.96371069  0.50241440     1.04300
C201        C  0.69805259  0.95018849  0.53768256     0.92800
C202        C  0.76290030  0.93457940  0.46519299     0.91900
C203        C  0.76303704  0.93291000  0.53832715     0.84100
C204        C  0.69761566  0.95160484  0.46654706     0.90300
C205        C  0.22230122  0.92210884  0.60927240     0.86000
C206        C  0.20512279  0.94514059  0.60814198    -0.54200
C207        C  0.19031766  0.94645673  0.58721076     0.08900
C208        C  0.19378904  0.92383367  0.56942971     0.19900
C209        C  0.20432561  0.89972724  0.60673055    -0.55000
C210        C  0.18941950  0.90058827  0.58594915     0.09000
C211        C  0.23657127  0.92235293  0.58449029    -0.54500
C212        C  0.22184204  0.92334798  0.56375842     0.09600
H213        H  0.20476806  0.95901827  0.62301372     0.14100
H214        H  0.18226075  0.92421220  0.55220052    -0.00100
H215        H  0.20265624  0.88469674  0.62013270     0.14400
H216        H  0.25681888  0.92266572  0.58344512     0.14200
C217        C  0.39181976  0.92574347  0.77852430     0.86000
C218        C  0.39393028  0.90428793  0.79767553    -0.54200
C219        C  0.41412295  0.90612374  0.81337591     0.08900
C220        C  0.43064058  0.92916684  0.80818953     0.19900
C221        C  0.39234478  0.94960365  0.79472571    -0.55000
C222        C  0.41254509  0.95146268  0.81034547     0.09000
C223        C  0.41694932  0.92546327  0.76496972    -0.54500
C224        C  0.43715440  0.92744443  0.78029948     0.09600
H225        H  0.38093114  0.88890360  0.79906737     0.14100
H226        H  0.44736844  0.93078637  0.82030020    -0.00100
H227        H  0.37744581  0.96334505  0.79435529     0.14400
H228        H  0.41861245  0.92475230  0.74469929     0.14200
O229        O  0.28413807  0.96358316  0.52877148    -0.73400
O230        O  0.23294338  0.94796455  0.47530448    -0.74400
O231        O  0.23363284  0.94855096  0.52942454    -0.63000
O232        O  0.28323468  0.96324150  0.47484917    -0.71400
O233        O  0.29467185  0.92337518  0.47504325    -0.71000
O234        O  0.24588231  0.90880618  0.52960454    -0.62200
O235        O  0.24504152  0.90817177  0.47550079    -0.74800
O236        O  0.29565071  0.92374774  0.52807712    -0.73500
Cu237      Cu  0.25789180  0.95723319  0.50210928     1.04600
Cu238      Cu  0.27051517  0.91466480  0.50207858     1.04300
C239        C  0.29787182  0.94583212  0.53702602     0.92800
C240        C  0.23244958  0.92594235  0.46586528     0.91900
C241        C  0.23329455  0.92674568  0.53910641     0.84100
C242        C  0.29652758  0.94540201  0.46602227     0.90300
C243        C  0.39091987  0.93106687  0.22430053     0.86000
C244        C  0.39271041  0.95373830  0.20649805    -0.54200
C245        C  0.41313061  0.95339428  0.19110103     0.08900
C246        C  0.43004312  0.93041390  0.19487232     0.19900
C247        C  0.39204905  0.90828475  0.20663640    -0.55000
C248        C  0.41240257  0.90776989  0.19107725     0.09000
C249        C  0.41595454  0.93092523  0.23808342    -0.54500
C250        C  0.43634880  0.93070054  0.22294219     0.09600
H251        H  0.37890967  0.96841539  0.20515907     0.14100
H252        H  0.44681135  0.93042095  0.18274381    -0.00100
H253        H  0.37787823  0.89377177  0.20666962     0.14400
H254        H  0.41743353  0.93198455  0.25836104     0.14200
C255        C  0.22298118  0.92097339  0.39547818     0.86000
C256        C  0.20457396  0.89885229  0.39725015    -0.54200
C257        C  0.18915145  0.89978743  0.41769310     0.08900
C258        C  0.19351028  0.92301519  0.43456552     0.19900
C259        C  0.20628387  0.94435248  0.39652822    -0.55000
C260        C  0.19086006  0.94575064  0.41696835     0.09000
C261        C  0.23658241  0.92068623  0.42069779    -0.54500
C262        C  0.22137916  0.92210684  0.44102274     0.09600
H263        H  0.20346026  0.88368751  0.38381704     0.14100
H264        H  0.18167320  0.92361834  0.45154183    -0.00100
H265        H  0.20669970  0.95840100  0.38194017     0.14400
H266        H  0.25679338  0.92059827  0.42236275     0.14200
C267        C  0.60487356  0.93371141  0.22523489     0.86000
C268        C  0.60283353  0.91003605  0.20883797    -0.54200
C269        C  0.58258016  0.90966156  0.19318117     0.08900
C270        C  0.56584310  0.93303391  0.19560202     0.19900
C271        C  0.60402576  0.95545995  0.20619045    -0.55000
C272        C  0.58366213  0.95506782  0.19061747     0.09000
C273        C  0.57982718  0.93534206  0.23884109    -0.54500
C274        C  0.55949170  0.93497911  0.22357751     0.09600
H275        H  0.61675038  0.89528041  0.20902649     0.14100
H276        H  0.54915383  0.93240493  0.18332415    -0.00100
H277        H  0.61800729  0.96994059  0.20472202     0.14400
H278        H  0.57828794  0.93687759  0.25908032     0.14200
C279        C  0.77474346  0.93107994  0.39505826     0.86000
C280        C  0.79371458  0.95274841  0.39676322    -0.54200
C281        C  0.80842739  0.95248225  0.41777238     0.08900
C282        C  0.80281369  0.93019892  0.43526280     0.19900
C283        C  0.79101777  0.90753662  0.39733066    -0.55000
C284        C  0.80575620  0.90660626  0.41842252     0.09000
C285        C  0.76027919  0.93236383  0.41964331    -0.54500
C286        C  0.77470931  0.93194389  0.44055307     0.09600
H287        H  0.79637700  0.96653709  0.38227112     0.14100
H288        H  0.81387012  0.93026194  0.45276601    -0.00100
H289        H  0.79098892  0.89327654  0.38285506     0.14400
H290        H  0.74007629  0.93393060  0.42045189     0.14200
O291        O  0.46933020  0.96880015  0.28690207    -0.73400
O292        O  0.52426017  0.95869088  0.23636404    -0.74400
O293        O  0.47015057  0.95640140  0.23566633    -0.63000
O294        O  0.52277919  0.97117609  0.28777885    -0.71400
O295        O  0.52443975  0.93075227  0.29679705    -0.71000
O296        O  0.47127552  0.91612787  0.24582823    -0.62200
O297        O  0.52535145  0.91826256  0.24591125    -0.74800
O298        O  0.47131981  0.92856173  0.29664568    -0.73500
Cu299      Cu  0.49658744  0.96515030  0.26115129     1.04600
Cu300      Cu  0.49816725  0.92202918  0.27142733     1.04300
C301        C  0.46142571  0.95013168  0.29953863     0.92800
C302        C  0.53447817  0.93715360  0.23458966     0.91900
C303        C  0.46118370  0.93428022  0.23411288     0.84100
C304        C  0.53219755  0.95313074  0.30029192     0.90300
O305        O  0.97986214  0.39914536  0.75867234    -0.73400
O306        O  0.98809431  0.45328514  0.70745054    -0.74400
O307        O  0.98889334  0.40015893  0.70721533    -0.63000
O308        O  0.97872216  0.45348708  0.75889802    -0.71400
O309        O  0.01947867  0.45425646  0.76648931    -0.71000
O310        O  0.02960636  0.40048656  0.71449560    -0.62200
O311        O  0.02879582  0.45393226  0.71474211    -0.74800
O312        O  0.02059170  0.39994294  0.76634859    -0.73500
Cu313      Cu  0.98247186  0.42649353  0.73302974     1.04600
Cu314      Cu  0.02601447  0.42718583  0.74097786     1.04300
C315        C  0.99918741  0.38984724  0.76910159     0.92800
C316        C  0.00973499  0.46228489  0.70306734     0.91900
C317        C  0.01070385  0.39166057  0.70279978     0.84100
C318        C  0.99769843  0.46352245  0.76931780     0.90300
C319        C  0.99591639  0.70456942  0.61046607     0.86000
C320        C  0.01921487  0.72125735  0.60877411    -0.54200
C321        C  0.01984192  0.73672160  0.58835785     0.08900
C322        C  0.99664175  0.73395890  0.57128659     0.19900
C323        C  0.97403141  0.72324658  0.60932575    -0.55000
C324        C  0.97404959  0.73849835  0.58873688     0.09000
C325        C  0.99479101  0.69076788  0.58527156    -0.54500
C326        C  0.99534394  0.70594888  0.56486139     0.09600
H327        H  0.03370098  0.72103510  0.62297082     0.14100
H328        H  0.99701121  0.74571270  0.55425765    -0.00100
H329        H  0.95989425  0.72492139  0.62357583     0.14400
H330        H  0.99450435  0.67047353  0.58367868     0.14200
C331        C  0.99432636  0.53413491  0.77895563     0.86000
C332        C  0.97165230  0.53234003  0.79653003    -0.54200
C333        C  0.97168536  0.51189516  0.81190422     0.08900
C334        C  0.99490619  0.49500503  0.80849167     0.19900
C335        C  0.01688872  0.53311171  0.79668528    -0.55000
C336        C  0.01750525  0.51268131  0.81214785     0.09000
C337        C  0.99460978  0.50894344  0.76518408    -0.54500
C338        C  0.99512283  0.48857231  0.78042353     0.09600
H339        H  0.95691957  0.54607150  0.79751357     0.14100
H340        H  0.99511209  0.47809570  0.82045811    -0.00100
H341        H  0.03100818  0.54766952  0.79699999     0.14400
H342        H  0.99511020  0.50733652  0.74489565     0.14200
O343        O  0.98876930  0.63403620  0.47477083    -0.73400
O344        O  0.97841971  0.68423896  0.52986948    -0.74400
O345        O  0.97820183  0.68506181  0.47522543    -0.63000
O346        O  0.98869714  0.63297138  0.52777958    -0.71400
O347        O  0.02924405  0.64105843  0.52834923    -0.71000
O348        O  0.01876253  0.69359814  0.47527697    -0.62200
O349        O  0.01897252  0.69280743  0.52976818    -0.74800
O350        O  0.02931791  0.64218608  0.47492750    -0.73500
Cu351      Cu  0.98209804  0.65904639  0.50194845     1.04600
Cu352      Cu  0.02545265  0.66793483  0.50213201     1.04300
C353        C  0.01060247  0.63035259  0.46593955     0.92800
C354        C  0.99741596  0.69492206  0.53966826     0.91900
C355        C  0.99710722  0.69580334  0.46550808     0.84100
C356        C  0.01049835  0.62862459  0.53635143     0.90300
C357        C  0.99683593  0.53376753  0.22489411     0.86000
C358        C  0.01990905  0.53310377  0.20777932    -0.54200
C359        C  0.02161983  0.51232467  0.19254239     0.08900
C360        C  0.99956062  0.49400186  0.19604175     0.19900
C361        C  0.97465909  0.53071116  0.20671010    -0.55000
C362        C  0.97602780  0.50994018  0.19165886     0.09000
C363        C  0.99756521  0.50884978  0.23902158    -0.54500
C364        C  0.99917880  0.48820395  0.22406903     0.09600
H365        H  0.03325534  0.54834178  0.20762262     0.14100
H366        H  0.00017637  0.47667601  0.18463196    -0.00100
H367        H  0.95913228  0.54353306  0.20537877     0.14400
H368        H  0.99731155  0.50762647  0.25932455     0.14200
C369        C  0.99228933  0.70533254  0.39477553     0.86000
C370        C  0.96942887  0.72263536  0.39757450    -0.54200
C371        C  0.97021287  0.73801279  0.41814927     0.08900
C372        C  0.99399901  0.73479222  0.43419753     0.19900
C373        C  0.01462437  0.72339706  0.39519514    -0.55000
C374        C  0.01595968  0.73874431  0.41585458     0.09000
C375        C  0.99366742  0.69154180  0.41985822    -0.54500
C376        C  0.99463356  0.70676951  0.44038898     0.09600
H377        H  0.95402035  0.72338389  0.38453140     0.14100
H378        H  0.99446413  0.74666143  0.45125653    -0.00100
H379        H  0.02808244  0.72385118  0.38007325     0.14400
H380        H  0.99423788  0.67125367  0.42125490     0.14200
O381        O  0.03289405  0.45382305  0.28932043    -0.73400
O382        O  0.02292641  0.39913707  0.23822583    -0.74400
O383        O  0.02310088  0.45355064  0.23777740    -0.63000
O384        O  0.03273913  0.40021999  0.28989002    -0.71400
O385        O  0.99208378  0.40068206  0.29737583    -0.71000
O386        O  0.98239970  0.45354774  0.24562941    -0.62200
O387        O  0.98224616  0.39914874  0.24615305    -0.74800
O388        O  0.99221166  0.45373275  0.29667290    -0.73500
Cu389      Cu  0.02933444  0.42664125  0.26331963     1.04600
Cu390      Cu  0.98583888  0.42675452  0.27149740     1.04300
C391        C  0.01391543  0.46273242  0.30075524     0.92800
C392        C  0.00130723  0.38937421  0.23570899     0.91900
C393        C  0.00148479  0.46325817  0.23523605     0.84100
C394        C  0.01379624  0.39193965  0.30179190     0.90300
C395        C  0.00020703  0.14805276  0.60857269     0.86000
C396        C  0.97735609  0.13068945  0.60622171    -0.54200
C397        C  0.97768544  0.11500954  0.58585364     0.08900
C398        C  0.00159796  0.11770833  0.56983405     0.19900
C399        C  0.02248877  0.12999855  0.60863395    -0.55000
C400        C  0.02353179  0.11411917  0.58841906     0.09000
C401        C  0.00161047  0.16126200  0.58326617    -0.54500
C402        C  0.00248290  0.14564103  0.56308680     0.09600
H403        H  0.96230806  0.13007928  0.61960577     0.14100
H404        H  0.00224440  0.10541140  0.55307248    -0.00100
H405        H  0.03617570  0.12984451  0.62361703     0.14400
H406        H  0.00216754  0.18152168  0.58144932     0.14200
C407        C  0.99639544  0.31912882  0.77779044     0.86000
C408        C  0.01888994  0.31968607  0.79555230    -0.54200
C409        C  0.01978498  0.33993840  0.81133913     0.08900
C410        C  0.99739574  0.35798312  0.80799183     0.19900
C411        C  0.97369763  0.32096692  0.79538297    -0.55000
C412        C  0.97389018  0.34137354  0.81107558     0.09000
C413        C  0.99694161  0.34441488  0.76446772    -0.54500
C414        C  0.99755280  0.36466779  0.77999871     0.09600
H415        H  0.03279795  0.30492985  0.79566772     0.14100
H416        H  0.99790657  0.37477291  0.82026506    -0.00100
H417        H  0.95882306  0.30734325  0.79597895     0.14400
H418        H  0.99721216  0.34617065  0.74419992     0.14200
C419        C  0.00349148  0.14785007  0.39337665     0.86000
C420        C  0.02601117  0.12988610  0.39469248    -0.54200
C421        C  0.02640485  0.11471238  0.41531211     0.08900
C422        C  0.00375357  0.11862675  0.43274376     0.19900
C423        C  0.98071263  0.13046406  0.39519554    -0.55000
C424        C  0.98055897  0.11505297  0.41572955     0.09000
C425        C  0.00414595  0.16178417  0.41850034    -0.54500
C426        C  0.00419555  0.14670371  0.43897245     0.09600
H427        H  0.04046128  0.12876331  0.38069470     0.14100
H428        H  0.00395021  0.10694930  0.44983463    -0.00100
H429        H  0.96624633  0.13022099  0.38098428     0.14400
H430        H  0.00477127  0.18207918  0.42000060     0.14200
C431        C  0.00099162  0.31885272  0.22452791     0.86000
C432        C  0.97856671  0.31959600  0.20658217    -0.54200
C433        C  0.97724652  0.34056050  0.19180788     0.08900
C434        C  0.99941445  0.35876353  0.19616627     0.19900
C435        C  0.02371323  0.32182968  0.20705352    -0.55000
C436        C  0.02304824  0.34275653  0.19231231     0.09000
C437        C  0.99973621  0.34364633  0.23897952    -0.54500
C438        C  0.99910280  0.36441355  0.22429819     0.09600
H439        H  0.96513487  0.30444346  0.20570939     0.14100
H440        H  0.99903685  0.37613855  0.18494294    -0.00100
H441        H  0.03874393  0.30842146  0.20558633     0.14400
H442        H  0.00031761  0.34472382  0.25929647     0.14200
O443        O  0.99276455  0.21793832  0.52883700    -0.73400
O444        O  0.98604443  0.16724260  0.47379408    -0.74400
O445        O  0.98524746  0.16627732  0.52809072    -0.63000
O446        O  0.99349480  0.21903665  0.47577651    -0.71400
O447        O  0.03447098  0.21359331  0.47635072    -0.71000
O448        O  0.02620564  0.15996834  0.52852420    -0.62200
O449        O  0.02707874  0.16144068  0.47408145    -0.74800
O450        O  0.03367154  0.21196570  0.52968540    -0.73500
Cu451      Cu  0.98797838  0.19259435  0.50157608     1.04600
Cu452      Cu  0.03177729  0.18630891  0.50214475     1.04300
C453        C  0.01417553  0.22280010  0.53817903     0.92800
C454        C  0.00569996  0.15785340  0.46411697     0.91900
C455        C  0.00458860  0.15643593  0.53791535     0.84100
C456        C  0.01518771  0.22472328  0.46774961     0.90300
C457        C  0.00073724  0.29641582  0.24249845    -0.03800
C458        C  0.97912129  0.29176577  0.25680846    -0.09600
C459        C  0.97849371  0.27260672  0.27466155    -0.17300
C460        C  0.99956018  0.25775479  0.27892560     0.24900
C461        C  0.02117892  0.26212789  0.26493247    -0.18900
C462        C  0.02183830  0.28120765  0.24696521    -0.07800
C463        C  0.99920339  0.23844987  0.29798419    -0.14300
C464        C  0.99924673  0.22240931  0.31400042    -0.14000
C465        C  0.99990495  0.20318177  0.33312815     0.24800
C466        C  0.01903075  0.18537548  0.33321997    -0.19400
C467        C  0.02021144  0.16710863  0.35196033    -0.07900
C468        C  0.00218850  0.16620924  0.37124374    -0.04000
C469        C  0.98266763  0.18393430  0.37050341    -0.09300
C470        C  0.98162792  0.20226828  0.35179849    -0.16900
H471        H  0.96269231  0.30327952  0.25435830     0.11200
H472        H  0.96163289  0.26961459  0.28538485     0.10500
H473        H  0.03773947  0.25098270  0.26815646     0.10500
H474        H  0.03925920  0.28421276  0.23741394     0.11000
H475        H  0.03325604  0.18571346  0.31884293     0.11000
H476        H  0.03549374  0.15409938  0.35097681     0.11000
H477        H  0.96841466  0.18389158  0.38484629     0.11100
H478        H  0.96663893  0.21585140  0.35203331     0.10000
C479        C  0.99753969  0.29740368  0.75894991    -0.03800
C480        C  0.01843484  0.29565043  0.74297988    -0.09600
C481        C  0.01998479  0.27700199  0.72456519    -0.17300
C482        C  0.00070507  0.25959177  0.72168502     0.24900
C483        C  0.97994988  0.26089119  0.73749111    -0.18900
C484        C  0.97831298  0.27955502  0.75593213    -0.07800
C485        C  0.00204452  0.24054460  0.70241069    -0.14300
C486        C  0.00255627  0.22446731  0.68639781    -0.14000
C487        C  0.00215655  0.20498237  0.66751864     0.24800
C488        C  0.98118490  0.18961108  0.66502126    -0.19400
C489        C  0.98036603  0.17089508  0.64661607    -0.07900
C490        C  0.00067765  0.16706428  0.63021067    -0.04000
C491        C  0.02174952  0.18268928  0.63307085    -0.09300
C492        C  0.02248176  0.20142230  0.65150104    -0.16900
H493        H  0.03351825  0.30905799  0.74459405     0.11200
H494        H  0.03616138  0.27629595  0.71245795     0.10500
H495        H  0.96485571  0.24754512  0.73543433     0.10500
H496        H  0.96173048  0.27982373  0.76727145     0.11000
H497        H  0.96525615  0.19224829  0.67720722     0.11000
H498        H  0.96344707  0.16012157  0.64532168     0.11000
H499        H  0.03759112  0.18058473  0.62068598     0.11100
H500        H  0.03883284  0.21324103  0.65311176     0.10000
C501        C  0.01777096  0.24412013  0.44822599    -0.03800
C502        C  0.04137320  0.25090767  0.43896836    -0.09600
C503        C  0.04353280  0.26904310  0.42026756    -0.17300
C504        C  0.02215975  0.28054489  0.41062124     0.24900
C505        C  0.99864540  0.27391816  0.41972924    -0.18900
C506        C  0.99643766  0.25584820  0.43838366    -0.07800
C507        C  0.02410013  0.29917103  0.39138643    -0.14300
C508        C  0.02398856  0.31499079  0.37539206    -0.14000
C509        C  0.02172069  0.33412867  0.35670678     0.24800
C510        C  0.99849151  0.34519689  0.35246947    -0.19400
C511        C  0.99598314  0.36397127  0.33458393    -0.07900
C512        C  0.01673770  0.37201795  0.32068851    -0.04000
C513        C  0.04002917  0.36067227  0.32492667    -0.09300
C514        C  0.04248481  0.34181014  0.34286210    -0.16900
H515        H  0.05813631  0.24218891  0.44612149     0.11200
H516        H  0.06182905  0.27405698  0.41332347     0.10500
H517        H  0.98198298  0.28270787  0.41237861     0.10500
H518        H  0.97799204  0.25102508  0.44503064     0.11000
H519        H  0.98229405  0.33934672  0.36305005     0.11000
H520        H  0.97777377  0.37223543  0.33172262     0.11000
H521        H  0.05630762  0.36634550  0.31440601     0.11100
H522        H  0.06054163  0.33328090  0.34596654     0.10000
C523        C  0.99303057  0.68697997  0.37246624    -0.03800
C524        C  0.97352038  0.68450228  0.35480423    -0.09600
C525        C  0.97471649  0.66648687  0.33562603    -0.17300
C526        C  0.99533354  0.65053650  0.33351867     0.24900
C527        C  0.01499247  0.65304578  0.35061949    -0.18900
C528        C  0.01387409  0.67103738  0.36978830    -0.07800
C529        C  0.99608495  0.63137839  0.31412980    -0.14300
C530        C  0.99647851  0.61517774  0.29812186    -0.14000
C531        C  0.99681002  0.59555493  0.27919095     0.24800
C532        C  0.01557861  0.57735115  0.27926907    -0.19400
C533        C  0.01565428  0.55814376  0.26128883    -0.07900
C534        C  0.99671300  0.55631775  0.24297867    -0.04000
C535        C  0.97817357  0.57513732  0.24281415    -0.09300
C536        C  0.97827526  0.59446243  0.26071996    -0.16900
H537        H  0.95703101  0.69596779  0.35560901     0.11200
H538        H  0.95934414  0.66483634  0.32254371     0.10500
H539        H  0.03112031  0.64090926  0.34932042     0.10500
H540        H  0.02924578  0.67229403  0.38290509     0.11000
H541        H  0.03012287  0.57788359  0.29335220     0.11000
H542        H  0.03034189  0.54425557  0.26198613     0.11000
H543        H  0.96342684  0.57533515  0.22911713     0.11100
H544        H  0.96371205  0.60850222  0.26024078     0.10000
C545        C  0.01402939  0.61268456  0.44485561    -0.03800
C546        C  0.03800325  0.60698318  0.43578321    -0.09600
C547        C  0.04098370  0.59048430  0.41559673    -0.17300
C548        C  0.02006012  0.57963594  0.40422544     0.24900
C549        C  0.99617664  0.58539639  0.41298684    -0.18900
C550        C  0.99315484  0.60177798  0.43316158    -0.07800
C551        C  0.02284915  0.56175640  0.38425876    -0.14300
C552        C  0.02320974  0.54562261  0.36845193    -0.14000
C553        C  0.02119976  0.52523479  0.35093487     0.24800
C554        C  0.99777497  0.51480668  0.34605892    -0.19400
C555        C  0.99552391  0.49435334  0.32990879    -0.07900
C556        C  0.01672081  0.48399157  0.31835827    -0.04000
C557        C  0.04023270  0.49469022  0.32321586    -0.09300
C558        C  0.04244199  0.51520222  0.33947111    -0.16900
H559        H  0.05442966  0.61516276  0.44433496     0.11200
H560        H  0.05956431  0.58605727  0.40899581     0.10500
H561        H  0.97986480  0.57704574  0.40434265     0.10500
H562        H  0.97444972  0.60592440  0.43955547     0.11000
H563        H  0.98122474  0.52240029  0.35488263     0.11000
H564        H  0.97713228  0.48670010  0.32645025     0.11000
H565        H  0.05687031  0.48723628  0.31448075     0.11100
H566        H  0.06067800  0.52312825  0.34319395     0.10000
C567        C  0.99689699  0.68617629  0.63250400    -0.03800
C568        C  0.97843177  0.68499068  0.65132778    -0.09600
C569        C  0.97967214  0.66696382  0.67026288    -0.17300
C570        C  0.99925944  0.64969915  0.67092798     0.24900
C571        C  0.01785523  0.65078171  0.65261726    -0.18900
C572        C  0.01671928  0.66882493  0.63368500    -0.07800
C573        C  0.99988946  0.63060253  0.69007057    -0.14300
C574        C  0.99968256  0.61449095  0.70594086    -0.14000
C575        C  0.99859041  0.59507272  0.72472955     0.24800
C576        C  0.01743736  0.57704826  0.72635090    -0.19400
C577        C  0.01593937  0.55790614  0.74413352    -0.07900
C578        C  0.99549216  0.55622327  0.76066605    -0.04000
C579        C  0.97674660  0.57473624  0.75892728    -0.09300
C580        C  0.97835248  0.59388717  0.74117067    -0.16900
H581        H  0.96269648  0.69747295  0.65170131     0.11200
H582        H  0.96511414  0.66633791  0.68429283     0.10500
H583        H  0.03313186  0.63752366  0.65280997     0.10500
H584        H  0.03122234  0.66902798  0.61959687     0.11000
H585        H  0.03322117  0.57765237  0.71373466     0.11000
H586        H  0.03069078  0.54408257  0.74480586     0.11000
H587        H  0.96057340  0.57476547  0.77082510     0.11100
H588        H  0.96360387  0.60770195  0.74013111     0.10000
C589        C  0.01623625  0.24082159  0.55913679    -0.03800
C590        C  0.99463233  0.25145634  0.56962045    -0.09600
C591        C  0.99644338  0.26852639  0.58937270    -0.17300
C592        C  0.01982115  0.27519465  0.59890622     0.24900
C593        C  0.04143027  0.26452692  0.58884529    -0.18900
C594        C  0.03966862  0.24737719  0.56908081    -0.07800
C595        C  0.02146642  0.29376621  0.61831180    -0.14300
C596        C  0.02123827  0.31025570  0.63371099    -0.14000
C597        C  0.01890793  0.33068815  0.65105999     0.24800
C598        C  0.03994815  0.34059015  0.66304554    -0.19400
C599        C  0.03742452  0.36070508  0.67969443    -0.07900
C600        C  0.01379318  0.37109784  0.68447204    -0.04000
C601        C  0.99281655  0.36105251  0.67217345    -0.09300
C602        C  0.99538705  0.34098849  0.65559700    -0.16900
H603        H  0.97631202  0.24666652  0.56252121     0.11200
H604        H  0.97961228  0.27672802  0.59704131     0.10500
H605        H  0.05961584  0.26964095  0.59609941     0.10500
H606        H  0.05662402  0.23941452  0.56148553     0.11000
H607        H  0.05825319  0.33276048  0.65955377     0.11000
H608        H  0.05390241  0.36798673  0.68892581     0.11000
H609        H  0.97435664  0.36856674  0.67547196     0.11100
H610        H  0.97900555  0.33348714  0.64632440     0.10000
C611        C  0.01374368  0.60912345  0.55568967    -0.03800
C612        C  0.99326267  0.59440809  0.56301284    -0.09600
C613        C  0.99589788  0.57630082  0.58156564    -0.17300
C614        C  0.01898312  0.57262435  0.59315397     0.24900
C615        C  0.03958264  0.58697292  0.58589101    -0.18900
C616        C  0.03700254  0.60512835  0.56722772    -0.07800
C617        C  0.02107619  0.55442787  0.61281284    -0.14300
C618        C  0.02071267  0.53903658  0.62923642    -0.14000
C619        C  0.01809551  0.52035323  0.64836692     0.24800
C620        C  0.03897539  0.51156032  0.66136408    -0.19400
C621        C  0.03628835  0.49277792  0.67933768    -0.07900
C622        C  0.01265261  0.48254084  0.68446751    -0.04000
C623        C  0.99174348  0.49186388  0.67161076    -0.09300
C624        C  0.99447802  0.51061306  0.65368461    -0.16900
H625        H  0.97511606  0.59693034  0.55448141     0.11200
H626        H  0.97983942  0.56528804  0.58702507     0.10500
H627        H  0.05754807  0.58426805  0.59476526     0.10500
H628        H  0.05310527  0.61616181  0.56201257     0.11000
H629        H  0.05733214  0.51905391  0.65746219     0.11000
H630        H  0.05272187  0.48615010  0.68905406     0.11000
H631        H  0.97327235  0.48454699  0.67524464     0.11100
H632        H  0.97817454  0.51736533  0.64380106     0.10000
C633        C  0.82328890  0.88528987  0.42370331    -0.03800
C634        C  0.84321533  0.88797241  0.44078178    -0.09600
C635        C  0.86052117  0.86864114  0.44426398    -0.17300
C636        C  0.85823520  0.84620770  0.43085186     0.24900
C637        C  0.83814166  0.84294117  0.41449410    -0.18900
C638        C  0.82075002  0.86212341  0.41109728    -0.07800
C639        C  0.87692397  0.82687918  0.43297503    -0.14300
C640        C  0.89273470  0.81076740  0.43306260    -0.14000
C641        C  0.91191687  0.79188849  0.43127443     0.24800
C642        C  0.90594310  0.76760868  0.42329537    -0.19400
C643        C  0.92482077  0.74988500  0.41960847    -0.07900
C644        C  0.94996978  0.75619430  0.42390028    -0.04000
C645        C  0.95570479  0.78037336  0.43257733    -0.09300
C646        C  0.93682814  0.79812441  0.43613757    -0.16900
H647        H  0.84606505  0.90508152  0.45113714     0.11200
H648        H  0.87596175  0.87140067  0.45708175     0.10500
H649        H  0.83602152  0.82559490  0.40411877     0.10500
H650        H  0.80539050  0.85853423  0.39849313     0.11000
H651        H  0.88675195  0.76251217  0.41945934     0.11000
H652        H  0.91977470  0.73129609  0.41321665     0.11000
H653        H  0.97482828  0.78589167  0.43569793     0.11100
H654        H  0.94173251  0.81688451  0.44215237     0.08800
C655        C  0.82834043  0.97158850  0.42237162    -0.03800
C656        C  0.85051868  0.96533374  0.43500941    -0.09600
C657        C  0.86975854  0.98295230  0.43778627    -0.17300
C658        C  0.86708052  0.00712353  0.42805360     0.24900
C659        C  0.84487778  0.01366296  0.41597993    -0.18900
C660        C  0.82567318  0.99614272  0.41323268    -0.07800
C661        C  0.88720865  0.02510869  0.42956597    -0.14300
C662        C  0.90346744  0.04082191  0.42922819    -0.14000
C663        C  0.92241766  0.05998465  0.42714058     0.24800
C664        C  0.91723801  0.08224668  0.41443114    -0.19400
C665        C  0.93587528  0.10032806  0.41119952    -0.07900
C666        C  0.96016974  0.09645532  0.42054979    -0.04000
C667        C  0.96490053  0.07429982  0.43393516    -0.09300
C668        C  0.94625814  0.05619796  0.43708718    -0.16900
H669        H  0.85340737  0.94666975  0.44208206     0.11200
H670        H  0.88686095  0.97758432  0.44714116     0.10500
H671        H  0.84247842  0.03230033  0.40843509     0.10500
H672        H  0.80871883  0.00190346  0.40389513     0.11000
H673        H  0.89882183  0.08554139  0.40676612     0.11000
H674        H  0.93113614  0.11734387  0.40138799     0.11000
H675        H  0.98309020  0.07048563  0.44152413     0.11100
H676        H  0.95056622  0.03908704  0.44700261     0.10000
C677        C  0.75676785  0.93052814  0.37263682    -0.03800
C678        C  0.75426258  0.95055372  0.35561402    -0.09600
C679        C  0.73603635  0.94996913  0.33676480    -0.17300
C680        C  0.71984931  0.92951558  0.33446266     0.24900
C681        C  0.72220619  0.90947383  0.35106961    -0.18900
C682        C  0.74037565  0.90999964  0.36994012    -0.07800
C683        C  0.70052001  0.92937023  0.31545329    -0.14300
C684        C  0.68427385  0.92961967  0.29965739    -0.14000
C685        C  0.66490617  0.93050787  0.28071174     0.24800
C686        C  0.64657114  0.91188330  0.27946410    -0.19400
C687        C  0.62773668  0.91301710  0.26127947    -0.07900
C688        C  0.62671185  0.93281859  0.24388348    -0.04000
C689        C  0.64542302  0.95141271  0.24534068    -0.09300
C690        C  0.66424196  0.95020212  0.26354153    -0.16900
H691        H  0.76559499  0.96716141  0.35695282     0.11200
H692        H  0.73433013  0.96572795  0.32418342     0.10500
H693        H  0.70976837  0.89354303  0.34966229     0.10500
H694        H  0.74137065  0.89445960  0.38285145     0.11000
H695        H  0.64673051  0.89652620  0.29263546     0.11000
H696        H  0.61365947  0.89847160  0.26093000     0.11000
H697        H  0.64578130  0.96719916  0.23289757     0.11100
H698        H  0.67825359  0.96480694  0.26430332     0.10000
C699        C  0.17352910  0.96726710  0.42160045    -0.03800
C700        C  0.17815084  0.99095089  0.41098243    -0.09600
C701        C  0.16117333  0.01060374  0.41404977    -0.17300
C702        C  0.13937410  0.00708091  0.42793509     0.24900
C703        C  0.13500395  0.98399526  0.43936068    -0.18900
C704        C  0.15196124  0.96431204  0.43633087    -0.07800
C705        C  0.12094440  0.02669988  0.42934836    -0.14300
C706        C  0.10506209  0.04271833  0.42907030    -0.14000
C707        C  0.08574953  0.06140042  0.42708259     0.24800
C708        C  0.06183368  0.05661871  0.43635262    -0.19400
C709        C  0.04271291  0.07413553  0.43305137    -0.07900
C710        C  0.04711376  0.09664253  0.42022242    -0.04000
C711        C  0.07146584  0.10153124  0.41158971    -0.09300
C712        C  0.09055781  0.08402100  0.41492022    -0.16900
H713        H  0.19486041  0.99445451  0.40025099     0.11200
H714        H  0.16489090  0.02845521  0.40525732     0.10500
H715        H  0.11822384  0.98102936  0.45022711     0.10500
H716        H  0.14763959  0.94672278  0.44509559     0.11000
H717        H  0.05784281  0.03915973  0.44578583     0.11000
H718        H  0.02443381  0.06962412  0.43999628     0.11000
H719        H  0.07588093  0.11891182  0.40226620     0.11100
H720        H  0.10901599  0.08802541  0.40775059     0.10000
C721        C  0.17007428  0.88013131  0.42270421    -0.03800
C722        C  0.17509310  0.85476757  0.41747855    -0.09600
C723        C  0.15651758  0.83656500  0.42037338    -0.17300
C724        C  0.13264437  0.84341971  0.42850135     0.24900
C725        C  0.12771668  0.86849651  0.43439279    -0.18900
C726        C  0.14631430  0.88668505  0.43161442    -0.07800
C727        C  0.11288617  0.82503271  0.42950997    -0.14300
C728        C  0.09614555  0.80985540  0.42899383    -0.14000
C729        C  0.07630043  0.79165785  0.42670725     0.24800
C730        C  0.05344761  0.79533986  0.43881915    -0.19400
C731        C  0.03396731  0.77808522  0.43562487    -0.07900
C732        C  0.03693999  0.75687981  0.42011150    -0.04000
C733        C  0.06029308  0.75315187  0.40854929    -0.09300
C734        C  0.07966641  0.77041579  0.41172530    -0.16900
H735        H  0.19333017  0.84903185  0.41095007     0.11200
H736        H  0.16064431  0.81722911  0.41580384     0.10500
H737        H  0.10931449  0.87409972  0.44059570     0.10500
H738        H  0.14174395  0.90596379  0.43549996     0.11000
H739        H  0.05057388  0.81169362  0.45052477     0.11000
H740        H  0.01655936  0.78177933  0.44501365     0.11000
H741        H  0.06386681  0.73678480  0.39714652     0.11100
H742        H  0.09729717  0.76721365  0.40236604     0.10000
C743        C  0.36904872  0.93017069  0.24286213    -0.03800
C744        C  0.35168433  0.94985551  0.24592914    -0.09600
C745        C  0.33301209  0.94858306  0.26426182    -0.17300
C746        C  0.33120355  0.92774243  0.27995693     0.24900
C747        C  0.34821677  0.90809376  0.27709907    -0.18900
C748        C  0.36687912  0.90929275  0.25881341    -0.07800
C749        C  0.31208037  0.92657343  0.29909104    -0.14300
C750        C  0.29625132  0.92549523  0.31523176    -0.14000
C751        C  0.27755368  0.92432729  0.33478130     0.24800
C752        C  0.25912742  0.90571995  0.33438222    -0.19400
C753        C  0.24125395  0.90437457  0.35351395    -0.07900
C754        C  0.24142796  0.92175413  0.37351127    -0.04000
C755        C  0.25980005  0.94071543  0.37328193    -0.09300
C756        C  0.27775444  0.94183572  0.35432110    -0.16900
H757        H  0.35242234  0.96658074  0.23477683     0.11200
H758        H  0.32006948  0.96402067  0.26631581     0.10500
H759        H  0.34717978  0.89186088  0.28913271     0.10500
H760        H  0.37997194  0.89393467  0.25729450     0.11000
H761        H  0.25860820  0.89213259  0.31927831     0.11000
H762        H  0.22746643  0.88974502  0.35221607     0.11000
H763        H  0.26046438  0.95456346  0.38813933     0.11100
H764        H  0.29182889  0.95638565  0.35494878     0.10000
C765        C  0.31394544  0.94985604  0.44500443    -0.03800
C766        C  0.31584142  0.97348764  0.43358815    -0.09600
C767        C  0.33229875  0.97718716  0.41356817    -0.17300
C768        C  0.34694323  0.95731542  0.40475628     0.24900
C769        C  0.34496865  0.93377184  0.41588660    -0.18900
C770        C  0.32861380  0.93003953  0.43579698    -0.07800
C771        C  0.36447274  0.96074947  0.38466952    -0.14300
C772        C  0.38027325  0.96101760  0.36862673    -0.14000
C773        C  0.40017957  0.95851008  0.35072505     0.24800
C774        C  0.41172446  0.93523914  0.34756692    -0.19400
C775        C  0.43166428  0.93258321  0.33098829    -0.07900
C776        C  0.44042260  0.95322322  0.31728671    -0.04000
C777        C  0.42852652  0.97652424  0.32034652    -0.09300
C778        C  0.40853021  0.97913953  0.33700110    -0.16900
H779        H  0.30465482  0.98906341  0.44011252     0.11200
H780        H  0.33366969  0.99550370  0.40506178     0.10500
H781        H  0.35619519  0.91825830  0.40922934     0.10500
H782        H  0.32752726  0.91157843  0.44400831     0.11000
H783        H  0.40541059  0.91913643  0.35807597     0.11000
H784        H  0.44024433  0.91434528  0.32896095     0.11000
H785        H  0.43468277  0.99271979  0.30992151     0.11100
H786        H  0.39971200  0.99724294  0.33928162     0.10000
C787        C  0.17273605  0.96770419  0.58247741    -0.03800
C788        C  0.15149404  0.96455055  0.56722497    -0.09600
C789        C  0.13401363  0.98386290  0.56465546    -0.17300
C790        C  0.13753272  0.00670226  0.57711749     0.24900
C791        C  0.15915152  0.01048240  0.59128898    -0.18900
C792        C  0.17666134  0.99127150  0.59382578    -0.07800
C793        C  0.11847610  0.02579213  0.57652890    -0.14300
C794        C  0.10232226  0.04154785  0.57742554    -0.14000
C795        C  0.08279017  0.06005844  0.57952519     0.24800
C796        C  0.08748113  0.08306451  0.59126169    -0.19400
C797        C  0.06835998  0.10071937  0.59390354    -0.07900
C798        C  0.04414642  0.09563122  0.58489013    -0.04000
C799        C  0.03975482  0.07258732  0.57285297    -0.09300
C800        C  0.05888234  0.05492242  0.57028350    -0.16900
H801        H  0.14774950  0.94699694  0.55788624     0.11200
H802        H  0.11743060  0.98073292  0.55346706     0.10500
H803        H  0.16227615  0.02816232  0.60080197     0.10500
H804        H  0.19316509  0.99497277  0.60488450     0.11000
H805        H  0.10590342  0.08733732  0.59846079     0.11000
H806        H  0.07264176  0.11842799  0.60283866     0.11000
H807        H  0.02145193  0.06789320  0.56587174     0.11100
H808        H  0.05495401  0.03715644  0.56125026     0.10000
C809        C  0.04069249  0.75472979  0.58368433    -0.03800
C810        C  0.06501425  0.74982438  0.59240585    -0.09600
C811        C  0.08416163  0.76734633  0.58911184    -0.17300
C812        C  0.07938178  0.79002247  0.57698283     0.24900
C813        C  0.05545910  0.79486299  0.56778536    -0.18900
C814        C  0.03631193  0.77736201  0.57102198    -0.07800
C815        C  0.09874214  0.80867883  0.57483621    -0.14300
C816        C  0.11476648  0.82457354  0.57421114    -0.14000
C817        C  0.13386204  0.84361433  0.57509409     0.24800
C818        C  0.12755421  0.86892283  0.57243961    -0.19400
C819        C  0.14584145  0.88748564  0.57506291    -0.07900
C820        C  0.17057307  0.88095114  0.58062125    -0.04000
C821        C  0.17687287  0.85550953  0.58279864    -0.09300
C822        C  0.15864696  0.83696589  0.57995115    -0.16900
H823        H  0.06935764  0.73243303  0.60175312     0.11200
H824        H  0.10262526  0.76330852  0.59625924     0.10500
H825        H  0.05145595  0.81236478  0.55841459     0.10500
H826        H  0.01808783  0.78198779  0.56415570     0.11000
H827        H  0.10841290  0.87433749  0.56889073     0.11000
H828        H  0.14045316  0.90692722  0.57379781     0.11000
H829        H  0.19585684  0.85002604  0.58701041     0.11100
H830        H  0.16378464  0.81748056  0.58208348     0.10000
C831        C  0.36994245  0.92545959  0.76000764    -0.03800
C832        C  0.35167528  0.90641117  0.75929237    -0.09600
C833        C  0.33261124  0.90676996  0.74134464    -0.17300
C834        C  0.33129407  0.92606723  0.72377871     0.24900
C835        C  0.34910740  0.94519395  0.72436914    -0.18900
C836        C  0.36816058  0.94492452  0.74229852    -0.07800
C837        C  0.31181043  0.92605858  0.70505291    -0.14300
C838        C  0.29559613  0.92570695  0.68929811    -0.14000
C839        C  0.27648641  0.92499783  0.67019921     0.24800
C840        C  0.27366933  0.94505322  0.65371630    -0.19400
C841        C  0.25581948  0.94397002  0.63462574    -0.07900
C842        C  0.24024796  0.92285075  0.63160881    -0.04000
C843        C  0.24308988  0.90287776  0.64860160    -0.09300
C844        C  0.26105052  0.90400021  0.66765757    -0.16900
H845        H  0.35178556  0.89100598  0.77221363     0.11200
H846        H  0.31892241  0.89184488  0.74109890     0.10500
H847        H  0.34837135  0.96026523  0.71088506     0.10500
H848        H  0.38180654  0.95988342  0.74221388     0.11000
H849        H  0.28551299  0.96141502  0.65538300     0.11000
H850        H  0.25438985  0.95957763  0.62183196     0.11000
H851        H  0.23214426  0.88601691  0.64715769     0.11100
H852        H  0.26312181  0.88828071  0.68023322     0.10000
C853        C  0.67964789  0.95638310  0.44591587    -0.03800
C854        C  0.67712872  0.98041393  0.43545385    -0.09600
C855        C  0.66032842  0.98464254  0.41577618    -0.17300
C856        C  0.64585321  0.96492072  0.40629805     0.24900
C857        C  0.64844685  0.94095021  0.41643893    -0.18900
C858        C  0.66516963  0.93668898  0.43605348    -0.07800
C859        C  0.62784382  0.96895846  0.38660559    -0.14300
C860        C  0.61176949  0.96938981  0.37073658    -0.14000
C861        C  0.59198639  0.96595532  0.35268393     0.24800
C862        C  0.58566696  0.94164612  0.34520155    -0.19400
C863        C  0.56612656  0.93759292  0.32837043    -0.07900
C864        C  0.55255590  0.95783713  0.31856799    -0.04000
C865        C  0.55905735  0.98230904  0.32604193    -0.09300
C866        C  0.57861435  0.98632829  0.34309300    -0.16900
H867        H  0.68811971  0.99594136  0.44247059     0.11200
H868        H  0.65854472  0.00327960  0.40807524     0.10500
H869        H  0.63739308  0.92551694  0.40926052     0.10500
H870        H  0.66671805  0.91793803  0.44350440     0.11000
H871        H  0.59581893  0.92572756  0.35249396     0.11000
H872        H  0.56177940  0.91854583  0.32289139     0.11000
H873        H  0.54896885  0.99828462  0.31882763     0.11100
H874        H  0.58323674  0.00524802  0.34881873     0.10000
C875        C  0.82570676  0.88540296  0.58008708    -0.03800
C876        C  0.82110890  0.86087029  0.58858643    -0.09600
C877        C  0.83925985  0.84222926  0.58628837    -0.17300
C878        C  0.86226515  0.84764698  0.57528112     0.24900
C879        C  0.86672171  0.87166694  0.56590591    -0.18900
C880        C  0.84852419  0.89035531  0.56816372    -0.07800
C881        C  0.88150590  0.82878712  0.57453373    -0.14300
C882        C  0.89745142  0.81284437  0.57522706    -0.14000
C883        C  0.91630905  0.79372848  0.57745350     0.24800
C884        C  0.93997949  0.79726269  0.56709715    -0.19400
C885        C  0.95858052  0.77914790  0.57024873    -0.07900
C886        C  0.95386850  0.75725848  0.58404037    -0.04000
C887        C  0.92969345  0.75362241  0.59374630    -0.09300
C888        C  0.91115963  0.77173944  0.59058037    -0.16900
H889        H  0.80352556  0.85604702  0.59723746     0.11200
H890        H  0.83547306  0.82367397  0.59346351     0.10500
H891        H  0.88444632  0.87610068  0.55728386     0.10500
H892        H  0.85276075  0.90878218  0.56131126     0.11000
H893        H  0.94420192  0.81418850  0.55680951     0.11000
H894        H  0.97659964  0.78268428  0.56231475     0.11000
H895        H  0.92489369  0.73672170  0.60373236     0.11100
H896        H  0.89285120  0.76865391  0.59852398     0.10000
C897        C  0.82523382  0.97261677  0.58089831    -0.03800
C898        C  0.84719209  0.96820522  0.56717951    -0.09600
C899        C  0.86495493  0.98713523  0.56398807    -0.17300
C900        C  0.86098017  0.01097261  0.57415346     0.24900
C901        C  0.83878217  0.01590910  0.58703059    -0.18900
C902        C  0.82104763  0.99693839  0.59035372    -0.07800
C903        C  0.88014933  0.02993097  0.57235279    -0.14300
C904        C  0.89670241  0.04532650  0.57206684    -0.14000
C905        C  0.91667959  0.06348091  0.57347790     0.24800
C906        C  0.91235082  0.08694753  0.58430521    -0.19400
C907        C  0.93198176  0.10390673  0.58750589    -0.07900
C908        C  0.95647682  0.09764166  0.58017910    -0.04000
C909        C  0.96044516  0.07440006  0.56837738    -0.09300
C910        C  0.94071833  0.05740962  0.56516342    -0.16900
H911        H  0.85113982  0.95002552  0.55941316     0.11200
H912        H  0.88201473  0.98302590  0.55393905     0.10500
H913        H  0.83533708  0.03432409  0.59485717     0.10500
H914        H  0.80409466  0.00138190  0.60038551     0.11000
H915        H  0.89384347  0.09201778  0.59065959     0.11000
H916        H  0.92789576  0.12191334  0.59589034     0.11000
H917        H  0.97884963  0.06892230  0.56235545     0.11100
H918        H  0.94433980  0.03932101  0.55668236     0.10000
C919        C  0.75716925  0.92922027  0.63091574    -0.03800
C920        C  0.74125809  0.95008874  0.63370029    -0.09600
C921        C  0.72317164  0.95089947  0.65257368    -0.17300
C922        C  0.72057858  0.93087939  0.66915721     0.24900
C923        C  0.73646833  0.91024194  0.66696157    -0.18900
C924        C  0.75455498  0.90934113  0.64809577    -0.07800
C925        C  0.70132354  0.93117065  0.68808039    -0.14300
C926        C  0.68520676  0.93079418  0.70389769    -0.14000
C927        C  0.66600352  0.92977491  0.72284517     0.24800
C928        C  0.66546781  0.91002095  0.73994501    -0.19400
C929        C  0.64666000  0.90865271  0.75807274    -0.07900
C930        C  0.62786530  0.92713169  0.75945434    -0.04000
C931        C  0.62899499  0.94717540  0.74234377    -0.09300
C932        C  0.64774363  0.94840832  0.72418284    -0.16900
H933        H  0.74250048  0.96561936  0.62079832     0.11200
H934        H  0.71097873  0.96700409  0.65398708     0.10500
H935        H  0.73461938  0.89457183  0.67963586     0.10500
H936        H  0.76570533  0.89262743  0.64697910     0.11000
H937        H  0.67956770  0.89551781  0.73919001     0.11000
H938        H  0.64721411  0.89296925  0.77064222     0.11000
H939        H  0.61501607  0.96179728  0.74284624     0.11100
H940        H  0.64790313  0.96385238  0.71110851     0.10000
C941        C  0.55371780  0.95070381  0.68563963    -0.03800
C942        C  0.56334553  0.97483255  0.68152447    -0.09600
C943        C  0.58261457  0.97851355  0.66431777    -0.17300
C944        C  0.59246502  0.95814137  0.65110734     0.24900
C945        C  0.58298446  0.93409131  0.65506447    -0.18900
C946        C  0.56374396  0.93036664  0.67220250    -0.07800
C947        C  0.61218254  0.96167212  0.63330529    -0.14300
C948        C  0.62838142  0.96241298  0.61774870    -0.14000
C949        C  0.64690447  0.96008687  0.59849006     0.24800
C950        C  0.65682219  0.93646915  0.59318540    -0.19400
C951        C  0.67347748  0.93337479  0.57340334    -0.07900
C952        C  0.68059835  0.95393262  0.55871899    -0.04000
C953        C  0.67109249  0.97779044  0.56455405    -0.09300
C954        C  0.65416533  0.98081284  0.58428080    -0.16900
H955        H  0.55603395  0.99083846  0.69160991     0.11200
H956        H  0.58982604  0.99720685  0.66133671     0.10500
H957        H  0.59048238  0.91819802  0.64489885     0.10500
H958        H  0.55680372  0.91154278  0.67497647     0.11000
H959        H  0.65136741  0.92033213  0.60411623     0.11000
H960        H  0.68081070  0.91486092  0.56961080     0.11000
H961        H  0.67636040  0.99395044  0.55359481     0.11100
H962        H  0.64652737  0.99917726  0.58823064     0.10000
C963        C  0.44364222  0.95094055  0.68511367    -0.03800
C964        C  0.43671468  0.93144036  0.66874410    -0.09600
C965        C  0.41773013  0.93488787  0.65119053    -0.17300
C966        C  0.40526070  0.95782268  0.64970276     0.24900
C967        C  0.41200563  0.97743031  0.66584777    -0.18900
C968        C  0.43112518  0.97404183  0.68344227    -0.07800
C969        C  0.38554418  0.96080846  0.63158049    -0.14300
C970        C  0.36948630  0.96076809  0.61571784    -0.14000
C971        C  0.35125385  0.95754354  0.59610416     0.24800
C972        C  0.33550985  0.97718365  0.58890273    -0.19400
C973        C  0.31812138  0.97361511  0.56955531    -0.07900
C974        C  0.31633252  0.95032634  0.55724628    -0.04000
C975        C  0.33216144  0.93075136  0.56480823    -0.09300
C976        C  0.34944901  0.93435883  0.58401540    -0.16900
H977        H  0.44597112  0.91344961  0.66947160     0.11200
H978        H  0.41271198  0.91958053  0.63879598     0.10500
H979        H  0.40246792  0.99526964  0.66488825     0.10500
H980        H  0.43595746  0.98938941  0.69583488     0.11000
H981        H  0.33669174  0.99520894  0.59819080     0.11000
H982        H  0.30606909  0.98898240  0.56431364     0.11000
H983        H  0.33125182  0.91254983  0.55585558     0.11100
H984        H  0.36147480  0.91900488  0.58942485     0.10000
C985        C  0.41860169  0.88824226  0.83421634    -0.03800
C986        C  0.39834060  0.87707203  0.84663636    -0.09600
C987        C  0.40232230  0.85953097  0.86551045    -0.17300
C988        C  0.42658265  0.85289356  0.87243852     0.24900
C989        C  0.44692584  0.86444834  0.86078086    -0.18900
C990        C  0.44296763  0.88207615  0.84180464    -0.07800
C991        C  0.43015845  0.83352050  0.89082640    -0.14300
C992        C  0.43024651  0.81663529  0.90578819    -0.14000
C993        C  0.42667297  0.79651015  0.92334709     0.24800
C994        C  0.44697107  0.78411898  0.93425148    -0.19400
C995        C  0.44290110  0.76511161  0.95183434    -0.07900
C996        C  0.41847371  0.75826809  0.95861346    -0.04000
C997        C  0.39829799  0.77060885  0.94721992    -0.09300
C998        C  0.40238666  0.78951747  0.92976115    -0.16900
H999        H  0.37933381  0.88189525  0.84183370     0.11200
H1000       H  0.38641617  0.85089347  0.87451101     0.10500
H1001       H  0.46580698  0.85950597  0.86601498     0.10500
H1002       H  0.45896103  0.89026838  0.83261127     0.11000
H1003       H  0.46587760  0.78925027  0.92932088     0.11000
H1004       H  0.45881909  0.75573215  0.96000820     0.11000
H1005       H  0.37927564  0.76616732  0.95228226     0.11100
H1006       H  0.38652723  0.79895046  0.92148592     0.10000
C1007       C  0.41593952  0.75855927  0.04391070    -0.03800
C1008       C  0.44005971  0.76443102  0.05259577    -0.09600
C1009       C  0.44351896  0.78234678  0.07159913    -0.17300
C1010       C  0.42292560  0.79469675  0.08206520     0.24900
C1011       C  0.39892207  0.78885376  0.07353910    -0.18900
C1012       C  0.39543613  0.77097855  0.05466853    -0.07800
C1013       C  0.42600158  0.81370425  0.10120830    -0.14300
C1014       C  0.42597919  0.83008088  0.11694275    -0.14000
C1015       C  0.42297884  0.84975890  0.13540595     0.24800
C1016       C  0.39895978  0.85725716  0.14235487    -0.19400
C1017       C  0.39557920  0.87610961  0.16027149    -0.07900
C1018       C  0.41620733  0.88785096  0.17171355    -0.04000
C1019       C  0.44032991  0.88043660  0.16440871    -0.09300
C1020       C  0.44368059  0.86149771  0.14641096    -0.16900
H1021       H  0.45621131  0.75496618  0.04496301     0.11200
H1022       H  0.46221246  0.78660278  0.07804798     0.10500
H1023       H  0.38282919  0.79829831  0.08136784     0.10500
H1024       H  0.37666413  0.76722111  0.04819863     0.11000
H1025       H  0.38276222  0.84852157  0.13387498     0.11000
H1026       H  0.37673559  0.88167004  0.16489811     0.11000
H1027       H  0.45662372  0.88888404  0.17291971     0.11100
H1028       H  0.46239421  0.85593488  0.14119757     0.10000
C1029       C  0.16901246  0.50980131  0.04471258    -0.03800
C1030       C  0.14636277  0.49744425  0.03966053    -0.09600
C1031       C  0.12854045  0.49418936  0.05849756    -0.17300
C1032       C  0.13313894  0.50311809  0.08272729     0.24900
C1033       C  0.15583418  0.51489092  0.08812398    -0.18900
C1034       C  0.17365358  0.51815901  0.06932576    -0.07800
C1035       C  0.11429902  0.50119321  0.10185422    -0.14300
C1036       C  0.09866543  0.50109017  0.11809022    -0.14000
C1037       C  0.08005467  0.50269454  0.13747999     0.24800
C1038       C  0.08342899  0.51912747  0.15763745    -0.19400
C1039       C  0.06483799  0.52182755  0.17579431    -0.07900
C1040       C  0.04227802  0.50831618  0.17399237    -0.04000
C1041       C  0.03952025  0.49127766  0.15390333    -0.09300
C1042       C  0.05819641  0.48854701  0.13584592    -0.16900
H1043       H  0.14196722  0.49095292  0.02105032     0.11200
H1044       H  0.11100624  0.48510985  0.05404211     0.10500
H1045       H  0.15965479  0.52182671  0.10682576     0.10500
H1046       H  0.19104948  0.52726973  0.07412349     0.11000
H1047       H  0.10037908  0.53007101  0.15921640     0.11000
H1048       H  0.06836860  0.53454259  0.19117141     0.11000
H1049       H  0.02284619  0.48029976  0.15147341     0.11100
H1050       H  0.05537240  0.47568648  0.12035882     0.10000
C1051       C  0.16781656  0.51032096  0.95784245    -0.03800
C1052       C  0.14690531  0.49482569  0.96170145    -0.09600
C1053       C  0.12868168  0.49192340  0.94307869    -0.17300
C1054       C  0.13106468  0.50430040  0.92017816     0.24900
C1055       C  0.15214389  0.51901812  0.91574521    -0.18900
C1056       C  0.17041145  0.52185523  0.93424986    -0.07800
C1057       C  0.11166850  0.50254833  0.90145246    -0.14300
C1058       C  0.09550055  0.50231252  0.88565874    -0.14000
C1059       C  0.07632898  0.50344863  0.86667167     0.24800
C1060       C  0.08119852  0.51512804  0.84380542    -0.19400
C1061       C  0.06231225  0.51754640  0.82588074    -0.07900
C1062       C  0.03811025  0.50839224  0.83053563    -0.04000
C1063       C  0.03371080  0.49584942  0.85321347    -0.09300
C1064       C  0.05258885  0.49357487  0.87120522    -0.16900
H1065       H  0.14410325  0.48530278  0.97919187     0.11200
H1066       H  0.11252256  0.48032163  0.94671708     0.10500
H1067       H  0.15439770  0.52850004  0.89800566     0.10500
H1068       H  0.18655866  0.53310729  0.92983379     0.11000
H1069       H  0.09954522  0.52266500  0.83993123     0.11000
H1070       H  0.06673754  0.52663621  0.80838481     0.11000
H1071       H  0.01560421  0.48830522  0.85748222     0.11100
H1072       H  0.04855764  0.48440223  0.88878645     0.10000
C1073       C  0.23801224  0.55952966  0.00223031    -0.03800
C1074       C  0.25481832  0.56141536  0.02252792    -0.09600
C1075       C  0.27335186  0.57997754  0.02320707    -0.17300
C1076       C  0.27550165  0.59723379  0.00366764     0.24900
C1077       C  0.25867477  0.59595842  0.98367775    -0.18900
C1078       C  0.24018670  0.57740563  0.98289119    -0.07800
C1079       C  0.29513983  0.61596711  0.00380028    -0.14300
C1080       C  0.31151871  0.63164404  0.00338349    -0.14000
C1081       C  0.33106768  0.65044792  0.00254790     0.24800
C1082       C  0.33508909  0.66430281  0.98074380    -0.19400
C1083       C  0.35402274  0.68240795  0.97978464    -0.07900
C1084       C  0.36942563  0.68720090  0.00077564    -0.04000
C1085       C  0.36532778  0.67281461  0.02248819    -0.09300
C1086       C  0.34630813  0.65480229  0.02341331    -0.16900
H1087       H  0.25393501  0.54804005  0.03767559     0.11200
H1088       H  0.28620742  0.58064872  0.03884964     0.10500
H1089       H  0.26006348  0.60914457  0.96839034     0.10500
H1090       H  0.22832202  0.57716297  0.96664257     0.11000
H1091       H  0.32367527  0.66097547  0.96431357     0.11000
H1092       H  0.35661914  0.69191538  0.96224747     0.11000
H1093       H  0.37703735  0.67546564  0.03881369     0.11100
H1094       H  0.34361466  0.64414510  0.04039734     0.10000
C1095       C  0.41780004  0.97290085  0.17187511    -0.03800
C1096       C  0.42763348  0.96632224  0.14835873    -0.09600
C1097       C  0.43071388  0.98446198  0.12976407    -0.17300
C1098       C  0.42416725  0.00941530  0.13449235     0.24900
C1099       C  0.41490173  0.01619856  0.15804353    -0.18900
C1100       C  0.41172751  0.99809712  0.17660316    -0.07800
C1101       C  0.42600493  0.02793779  0.11500659    -0.14300
C1102       C  0.42623733  0.04383670  0.09900594    -0.14000
C1103       C  0.42485687  0.06322538  0.08034735     0.24800
C1104       C  0.41530622  0.08675884  0.08675033    -0.19400
C1105       C  0.41231718  0.10512911  0.06844077    -0.07900
C1106       C  0.41872496  0.10020846  0.04335229    -0.04000
C1107       C  0.42905716  0.07678885  0.03724844    -0.09300
C1108       C  0.43202690  0.05839208  0.05560567    -0.16900
H1109       H  0.43220607  0.94704477  0.14405133     0.11200
H1110       H  0.43780855  0.97894929  0.11158388     0.10500
H1111       H  0.40982149  0.03544504  0.16196713     0.10500
H1112       H  0.40448261  0.00381107  0.19464658     0.11000
H1113       H  0.40979499  0.09079479  0.10584635     0.11000
H1114       H  0.40482548  0.12314227  0.07392895     0.11000
H1115       H  0.43399039  0.07228697  0.01819578     0.11100
H1116       H  0.43941487  0.04023658  0.05038983     0.10000
C1117       C  0.41566104  0.97204112  0.82890833    -0.03800
C1118       C  0.40633701  0.99616536  0.82407745    -0.09600
C1119       C  0.40827870  0.01508079  0.84213879    -0.17300
C1120       C  0.41965870  0.01019801  0.86518545     0.24900
C1121       C  0.42930146  0.98638908  0.87003542    -0.18900
C1122       C  0.42729221  0.96741808  0.85205437    -0.07800
C1123       C  0.42080476  0.02941695  0.88409480    -0.14300
C1124       C  0.42094917  0.04550556  0.89998040    -0.14000
C1125       C  0.41996186  0.06476394  0.91886104     0.24800
C1126       C  0.43353874  0.06233515  0.94105668    -0.19400
C1127       C  0.43158396  0.08053411  0.95985351    -0.07900
C1128       C  0.41586795  0.10146284  0.95685145    -0.04000
C1129       C  0.40303038  0.10405406  0.93392424    -0.09300
C1130       C  0.40493446  0.08578367  0.91523700    -0.16900
H1131       H  0.39757563  0.00046509  0.80635249     0.11200
H1132       H  0.40075617  0.03346524  0.83819061     0.10500
H1133       H  0.43801885  0.98236869  0.88787467     0.10500
H1134       H  0.43418670  0.94897576  0.85666722     0.11000
H1135       H  0.44537034  0.04617617  0.94401034     0.11000
H1136       H  0.44205026  0.07763651  0.97679816     0.11000
H1137       H  0.39145018  0.12014970  0.93017239     0.11100
H1138       H  0.39451920  0.08798992  0.89799626     0.10000
C1139       C  0.04333895  0.34916271  0.17437949    -0.03800
C1140       C  0.03785511  0.36090163  0.15152214    -0.09600
C1141       C  0.05662310  0.36509607  0.13384178    -0.17300
C1142       C  0.08117949  0.35775130  0.13880322     0.24900
C1143       C  0.08703814  0.34705822  0.16194251    -0.18900
C1144       C  0.06829379  0.34283446  0.17962254    -0.07800
C1145       C  0.09993460  0.35939712  0.11954107    -0.14300
C1146       C  0.11543057  0.35888979  0.10315921    -0.14000
C1147       C  0.13390677  0.35642033  0.08369349     0.24800
C1148       C  0.15772232  0.34746502  0.08949654    -0.19400
C1149       C  0.17532121  0.34379501  0.07054639    -0.07900
C1150       C  0.16935656  0.34895434  0.04541296    -0.04000
C1151       C  0.14553957  0.35837941  0.03982184    -0.09300
C1152       C  0.12790253  0.36199234  0.05881484    -0.16900
H1153       H  0.01895387  0.36592347  0.14678424     0.11200
H1154       H  0.05182648  0.37336418  0.11599464     0.10500
H1155       H  0.10599190  0.34139853  0.16608430     0.10500
H1156       H  0.07332010  0.33435538  0.19728493     0.11000
H1157       H  0.16262603  0.34307646  0.10865877     0.11000
H1158       H  0.19362793  0.33693446  0.07560599     0.11000
H1159       H  0.14023891  0.36226576  0.02075247     0.11100
H1160       H  0.10947617  0.36878441  0.05404031     0.10000
C1161       C  0.16964541  0.34405107  0.95840805    -0.03800
C1162       C  0.14772518  0.35821944  0.96161710    -0.09600
C1163       C  0.12961016  0.35924389  0.94273638    -0.17300
C1164       C  0.13308483  0.34629101  0.92019434     0.24900
C1165       C  0.15502943  0.33265099  0.91647898    -0.18900
C1166       C  0.17319316  0.33165251  0.93528496    -0.07800
C1167       C  0.11410916  0.34687081  0.90096459    -0.14300
C1168       C  0.09811822  0.34703088  0.88497997    -0.14000
C1169       C  0.07886235  0.34662518  0.86601749     0.24800
C1170       C  0.08362392  0.33602603  0.84251357    -0.19400
C1171       C  0.06465694  0.33452186  0.82454518    -0.07900
C1172       C  0.04048936  0.34351144  0.82979204    -0.04000
C1173       C  0.03614660  0.35486953  0.85317021    -0.09300
C1174       C  0.05513919  0.35630132  0.87117301    -0.16900
H1175       H  0.14410513  0.36818653  0.97879817     0.11200
H1176       H  0.11275656  0.36998569  0.94583702     0.10500
H1177       H  0.15810670  0.32271385  0.89903511     0.10500
H1178       H  0.19002832  0.32120109  0.93147587     0.11000
H1179       H  0.10193360  0.32864775  0.83815428     0.11000
H1180       H  0.06895759  0.32622360  0.80654994     0.11000
H1181       H  0.01794151  0.36197768  0.85792758     0.11100
H1182       H  0.05119619  0.36462035  0.88926544     0.10000
C1183       C  0.24090458  0.30066908  0.00307098    -0.03800
C1184       C  0.24296971  0.28242015  0.02199866    -0.09600
C1185       C  0.26139760  0.26387835  0.02075412    -0.17300
C1186       C  0.27814515  0.26311439  0.00070730     0.24900
C1187       C  0.27624711  0.28094504  0.98171923    -0.18900
C1188       C  0.25780278  0.29944156  0.98284625    -0.07800
C1189       C  0.29729171  0.24409869  0.99977237    -0.14300
C1190       C  0.31316368  0.22802499  0.99954654    -0.14000
C1191       C  0.33198175  0.20866803  0.99993133     0.24800
C1192       C  0.34999564  0.20735738  0.98107546    -0.19400
C1193       C  0.36843181  0.18884165  0.98177630    -0.07900
C1194       C  0.36950585  0.17138253  0.00152534    -0.04000
C1195       C  0.35092529  0.17269579  0.02018362    -0.09300
C1196       C  0.33240663  0.19116198  0.01933131    -0.16900
H1197       H  0.23071497  0.28213151  0.03793880     0.11200
H1198       H  0.26264931  0.25015135  0.03557109     0.10500
H1199       H  0.28908157  0.28063563  0.96607754     0.10500
H1200       H  0.25684988  0.31310390  0.96795372     0.11000
H1201       H  0.34992460  0.22075676  0.96591197     0.11000
H1202       H  0.38230279  0.18842212  0.96705946     0.11000
H1203       H  0.35041705  0.15987991  0.03567092     0.11100
H1204       H  0.31848905  0.19190591  0.03399757     0.10000
C1205       C  0.44091088  0.24548282  0.98721249    -0.03800
C1206       C  0.42795067  0.24803957  0.96444562    -0.09600
C1207       C  0.40750014  0.26420927  0.96271369    -0.17300
C1208       C  0.39983368  0.27797729  0.98367798     0.24900
C1209       C  0.41244810  0.27532599  0.00642733    -0.18900
C1210       C  0.43280429  0.25917494  0.00822116    -0.07800
C1211       C  0.37969086  0.29561221  0.98186868    -0.14300
C1212       C  0.36382996  0.31156658  0.98186325    -0.14000
C1213       C  0.34612119  0.33167512  0.98367949     0.24800
C1214       C  0.34172905  0.34297131  0.00691468    -0.19400
C1215       C  0.32514597  0.36301198  0.00887531    -0.07900
C1216       C  0.31274698  0.37210084  0.98755785    -0.04000
C1217       C  0.31719009  0.36055513  0.96425418    -0.09300
C1218       C  0.33381348  0.34045844  0.96234571    -0.16900
H1219       H  0.43354452  0.23750307  0.94803356     0.11200
H1220       H  0.39781516  0.26611735  0.94501953     0.10500
H1221       H  0.40666907  0.28591662  0.02276015     0.10500
H1222       H  0.44225011  0.25750381  0.02605933     0.11000
H1223       H  0.35122205  0.33635027  0.02353029     0.11000
H1224       H  0.32207125  0.37139207  0.02709874     0.11000
H1225       H  0.30782071  0.36701613  0.94752482     0.11100
H1226       H  0.33713735  0.33185970  0.94425593     0.10000
C1227       C  0.82519614  0.34779753  0.95745148    -0.03800
C1228       C  0.81949941  0.33901207  0.93317236    -0.09600
C1229       C  0.83666610  0.34160084  0.91358987    -0.17300
C1230       C  0.85979710  0.35302863  0.91788650     0.24900
C1231       C  0.86534996  0.36241073  0.94173885    -0.18900
C1232       C  0.84816177  0.35998157  0.96127779    -0.07800
C1233       C  0.87823633  0.35427547  0.89820294    -0.14300
C1234       C  0.89429527  0.35433980  0.88231989    -0.14000
C1235       C  0.91387888  0.35295300  0.86378430     0.24800
C1236       C  0.93798121  0.36143372  0.86941157    -0.19400
C1237       C  0.95734273  0.35843349  0.85203875    -0.07900
C1238       C  0.95297920  0.34664682  0.82885437    -0.04000
C1239       C  0.92843548  0.33904858  0.82305952    -0.09300
C1240       C  0.90912951  0.34209145  0.84039523    -0.16900
H1241       H  0.80178591  0.33011069  0.92923490     0.11200
H1242       H  0.83201963  0.33437733  0.89518755     0.10500
H1243       H  0.88316149  0.37130820  0.94535806     0.10500
H1244       H  0.85326836  0.36713929  0.97945653     0.11000
H1245       H  0.94193378  0.36993016  0.88743239     0.11000
H1246       H  0.97578890  0.36465345  0.85717024     0.11000
H1247       H  0.92407314  0.33061465  0.80513189     0.11100
H1248       H  0.89055591  0.33560603  0.83567474     0.10000
C1249       C  0.82841326  0.34874436  0.04502492    -0.03800
C1250       C  0.82173622  0.34500013  0.07019934    -0.09600
C1251       C  0.83940735  0.34769421  0.08930893    -0.17300
C1252       C  0.86404785  0.35411119  0.08356909     0.24900
C1253       C  0.87070491  0.35850401  0.05861311    -0.18900
C1254       C  0.85296663  0.35596011  0.03947573    -0.07800
C1255       C  0.88270111  0.35486812  0.10310061    -0.14300
C1256       C  0.89849037  0.35414673  0.11925960    -0.14000
C1257       C  0.91767335  0.35186079  0.13813565     0.24800
C1258       C  0.94023779  0.36475881  0.13566399    -0.19400
C1259       C  0.95938064  0.36142258  0.15320245    -0.07900
C1260       C  0.95638058  0.34502911  0.17357792    -0.04000
C1261       C  0.93322225  0.33271554  0.17620409    -0.09300
C1262       C  0.91416714  0.33600626  0.15859057    -0.16900
H1263       H  0.80285631  0.33974499  0.07507586     0.11200
H1264       H  0.83395616  0.34428213  0.10851045     0.10500
H1265       H  0.88973496  0.36336441  0.05388329     0.10500
H1266       H  0.85872799  0.35867457  0.02035179     0.11000
H1267       H  0.94321047  0.37713013  0.11993320     0.11000
H1268       H  0.97660216  0.37137733  0.15027625     0.11000
H1269       H  0.92956850  0.32056782  0.19189979     0.11100
H1270       H  0.89673572  0.32600727  0.16085285     0.10000
C1271       C  0.57987867  0.97331171  0.16994920    -0.03800
C1272       C  0.60043881  0.98338881  0.15709987    -0.09600
C1273       C  0.59688733  0.99985359  0.13717040    -0.17300
C1274       C  0.57278432  0.00648609  0.12967632     0.24900
C1275       C  0.55217674  0.99670041  0.14237825    -0.18900
C1276       C  0.55569211  0.98021062  0.16239013    -0.07800
C1277       C  0.56956638  0.02368588  0.10922656    -0.14300
C1278       C  0.56941772  0.03884438  0.09255209    -0.14000
C1279       C  0.57252226  0.05785642  0.07377163     0.24800
C1280       C  0.55188881  0.06949229  0.06271892    -0.19400
C1281       C  0.55538448  0.08899211  0.04560100    -0.07900
C1282       C  0.57957481  0.09707539  0.03937559    -0.04000
C1283       C  0.60013257  0.08484298  0.05024966    -0.09300
C1284       C  0.59660294  0.06548077  0.06732997    -0.16900
H1285       H  0.61929964  0.97817461  0.16205521     0.11200
H1286       H  0.61298632  0.00733128  0.12750232     0.10500
H1287       H  0.53342549  0.00185136  0.13687491     0.10500
H1288       H  0.53947576  0.97312438  0.17209225     0.11000
H1289       H  0.53313894  0.06379062  0.06762317     0.11000
H1290       H  0.53915165  0.09809532  0.03777272     0.11000
H1291       H  0.61902786  0.09004572  0.04545216     0.11100
H1292       H  0.61271795  0.05656856  0.07569256     0.10000
C1293       C  0.57991435  0.10285424  0.95561233    -0.03800
C1294       C  0.56924801  0.07931404  0.96061203    -0.09600
C1295       C  0.56738503  0.06112906  0.94174090    -0.17300
C1296       C  0.57611178  0.06617312  0.91759174     0.24900
C1297       C  0.58627397  0.08971133  0.91231700    -0.18900
C1298       C  0.58813965  0.10792581  0.93114687    -0.07800
C1299       C  0.57553316  0.04692907  0.89851202    -0.14300
C1300       C  0.57592348  0.03055439  0.88282326    -0.14000
C1301       C  0.57730273  0.01066212  0.86446598     0.24800
C1302       C  0.58717679  0.01527500  0.84068709    -0.19400
C1303       C  0.58949836  0.99575089  0.82328114    -0.07900
C1304       C  0.58196148  0.97125249  0.82938207    -0.04000
C1305       C  0.57164956  0.96692419  0.85313526    -0.09300
C1306       C  0.56942508  0.98645090  0.87056886    -0.16900
H1307       H  0.56312474  0.07455833  0.97928774     0.11200
H1308       H  0.55958287  0.04295877  0.94612137     0.10500
H1309       H  0.59306014  0.09389151  0.89370987     0.10500
H1310       H  0.59611836  0.12594128  0.92655570     0.11000
H1311       H  0.59329472  0.03391874  0.83566432     0.11000
H1312       H  0.59714819  0.99986533  0.80501626     0.11000
H1313       H  0.56593381  0.94836410  0.85855520     0.11100
H1314       H  0.56184370  0.98258457  0.88893414     0.10000
C1315       C  0.62690441  0.17180232  0.00135500    -0.03800
C1316       C  0.64573247  0.17241101  0.01987370    -0.09600
C1317       C  0.66454923  0.19063294  0.01933443    -0.17300
C1318       C  0.66508702  0.20862609  0.00038340     0.24900
C1319       C  0.64671238  0.20813580  0.98176726    -0.18900
C1320       C  0.62791367  0.18991615  0.98220588    -0.07800
C1321       C  0.68435910  0.22764852  0.00022240    -0.14300
C1322       C  0.70047274  0.24355432  0.00046292    -0.14000
C1323       C  0.71967173  0.26264727  0.00108472     0.24800
C1324       C  0.72019233  0.28144433  0.98294443    -0.19400
C1325       C  0.73855004  0.30009722  0.98377477    -0.07900
C1326       C  0.75672587  0.30060802  0.00292042    -0.04000
C1327       C  0.75612793  0.28131949  0.02093282    -0.09300
C1328       C  0.73779486  0.26260381  0.01996496    -0.16900
H1329       H  0.64624173  0.15920889  0.03502867     0.11200
H1330       H  0.67865479  0.19076115  0.03387186     0.10500
H1331       H  0.64680352  0.22193318  0.96696745     0.10500
H1332       H  0.61381666  0.19013622  0.96766959     0.11000
H1333       H  0.70631437  0.28178698  0.96819658     0.11000
H1334       H  0.73836616  0.31449724  0.96956791     0.11000
H1335       H  0.76950605  0.28030364  0.03593670     0.11100
H1336       H  0.73769009  0.24812508  0.03410141     0.10000
C1337       C  0.55360855  0.24699308  0.98737449    -0.03800
C1338       C  0.56171904  0.26056743  0.00848833    -0.09600
C1339       C  0.58185743  0.27701459  0.00674870    -0.17300
C1340       C  0.59421790  0.28008628  0.98394449     0.24900
C1341       C  0.58629037  0.26674906  0.96278476    -0.18900
C1342       C  0.56606747  0.25028925  0.96446157    -0.07800
C1343       C  0.61474438  0.29728805  0.98239729    -0.14300
C1344       C  0.63122816  0.31259401  0.98259188    -0.14000
C1345       C  0.64971218  0.33195679  0.98465784     0.24800
C1346       C  0.65951015  0.34320671  0.96320467    -0.19400
C1347       C  0.67638471  0.36307028  0.96547127    -0.07900
C1348       C  0.68349655  0.37194958  0.98926245    -0.04000
C1349       C  0.67381677  0.36021670  0.01067530    -0.09300
C1350       C  0.65704917  0.34036516  0.00836012    -0.16900
H1351       H  0.55257060  0.25842547  0.02640691     0.11200
H1352       H  0.58781208  0.28732259  0.02321764     0.10500
H1353       H  0.59574123  0.26904522  0.94503471     0.10500
H1354       H  0.56037259  0.23997239  0.94792762     0.11000
H1355       H  0.65388713  0.33683584  0.94476524     0.11000
H1356       H  0.68363830  0.37162066  0.94864739     0.11000
H1357       H  0.67910792  0.36642768  0.02925608     0.11100
H1358       H  0.64955330  0.33177935  0.02507850     0.10000
C1359       C  0.58001392  0.75714424  0.96017355    -0.03800
C1360       C  0.59195669  0.75374163  0.93687747    -0.09600
C1361       C  0.58901597  0.77117208  0.91758575    -0.17300
C1362       C  0.57394693  0.79227947  0.92100528     0.24900
C1363       C  0.56149819  0.79560701  0.94377523    -0.18900
C1364       C  0.56441831  0.77820904  0.96312161    -0.07800
C1365       C  0.57190452  0.81080733  0.90142476    -0.14300
C1366       C  0.57141162  0.82648049  0.88513858    -0.14000
C1367       C  0.57253169  0.84537855  0.86585121     0.24800
C1368       C  0.56260843  0.86927802  0.87002978    -0.19400
C1369       C  0.56554057  0.88815409  0.85211211    -0.07900
C1370       C  0.57866662  0.88353540  0.82977027    -0.04000
C1371       C  0.58752929  0.85903850  0.82530444    -0.09300
C1372       C  0.58461665  0.84024058  0.84322599    -0.16900
H1373       H  0.60351579  0.73755174  0.93330779     0.11200
H1374       H  0.59866067  0.76823609  0.90001207     0.10500
H1375       H  0.54973471  0.81183518  0.94671477     0.10500
H1376       H  0.55472047  0.78175161  0.98043674     0.11000
H1377       H  0.55307425  0.87350806  0.88740068     0.11000
H1378       H  0.55816035  0.90647071  0.85625548     0.11000
H1379       H  0.59687275  0.85426371  0.80800629     0.11100
H1380       H  0.59217088  0.82177713  0.83957548     0.10000
C1381       C  0.57854637  0.88965759  0.17414500    -0.03800
C1382       C  0.57088385  0.89584684  0.14976471    -0.09600
C1383       C  0.56842101  0.87723090  0.13136376    -0.17300
C1384       C  0.57334729  0.85215012  0.13713165     0.24900
C1385       C  0.58062223  0.84581886  0.16149424    -0.18900
C1386       C  0.58331010  0.86443453  0.17984675    -0.07800
C1387       C  0.57173930  0.83302781  0.11793999    -0.14300
C1388       C  0.57140366  0.81686782  0.10199941    -0.14000
C1389       C  0.57236379  0.79730957  0.08321355     0.24800
C1390       C  0.57740799  0.77259344  0.09023664    -0.19400
C1391       C  0.57998667  0.75387008  0.07200640    -0.07900
C1392       C  0.57737405  0.75954847  0.04645719    -0.04000
C1393       C  0.57175118  0.78425078  0.03955824    -0.09300
C1394       C  0.56935932  0.80303297  0.05780773    -0.16900
H1395       H  0.56748545  0.91516337  0.14473614     0.11200
H1396       H  0.56295790  0.88244279  0.11256887     0.10500
H1397       H  0.58450518  0.82651394  0.16623897     0.10500
H1398       H  0.58909908  0.85912908  0.19850662     0.11000
H1399       H  0.57980495  0.76786887  0.10978943     0.11000
H1400       H  0.58425658  0.73495946  0.07783648     0.11000
H1401       H  0.57020338  0.78925232  0.02005774     0.11100
H1402       H  0.56565398  0.82209589  0.05206592     0.10000
C1403       C  0.95115045  0.50731821  0.83016942    -0.03800
C1404       C  0.95603920  0.49674009  0.85370131    -0.09600
C1405       C  0.93713270  0.49474208  0.87164313    -0.17300
C1406       C  0.91296280  0.50301430  0.86620459     0.24900
C1407       C  0.90769299  0.51282060  0.84256454    -0.18900
C1408       C  0.92656896  0.51487967  0.82466667    -0.07800
C1409       C  0.89373363  0.50217889  0.88503503    -0.14300
C1410       C  0.87775539  0.50251116  0.90093779    -0.14000
C1411       C  0.85926488  0.50410937  0.92045781     0.24800
C1412       C  0.83577270  0.51446339  0.91558785    -0.19400
C1413       C  0.81854013  0.51763792  0.93502428    -0.07900
C1414       C  0.82459073  0.51047508  0.95962051    -0.04000
C1415       C  0.84796532  0.49948074  0.96409917    -0.09300
C1416       C  0.86518012  0.49638219  0.94471604    -0.16900
H1417       H  0.97455271  0.49073910  0.85863960     0.11200
H1418       H  0.94146897  0.48711176  0.88988947     0.10500
H1419       H  0.88904310  0.51917055  0.83804993     0.10500
H1420       H  0.92188982  0.52255153  0.80654601     0.11000
H1421       H  0.83092452  0.52045977  0.89686181     0.11000
H1422       H  0.80054424  0.52578267  0.93082171     0.11000
H1423       H  0.85340617  0.49406499  0.98269392     0.11100
H1424       H  0.88331917  0.48843878  0.94877614     0.10000
C1425       C  0.82825899  0.50849458  0.04637297    -0.03800
C1426       C  0.82580735  0.51813688  0.07086509    -0.09600
C1427       C  0.84405331  0.51351481  0.08899383    -0.17300
C1428       C  0.86498152  0.49904792  0.08309637     0.24900
C1429       C  0.86726174  0.48867941  0.05916168    -0.18900
C1430       C  0.84899850  0.49320397  0.04103268    -0.07800
C1431       C  0.88448535  0.49571288  0.10134780    -0.14300
C1432       C  0.90072281  0.49471727  0.11696288    -0.14000
C1433       C  0.91949953  0.49607680  0.13622561     0.24800
C1434       C  0.94454865  0.49111926  0.13071190    -0.19400
C1435       C  0.96292844  0.49484091  0.14900367    -0.07900
C1436       C  0.95646642  0.50374567  0.17291964    -0.04000
C1437       C  0.93118382  0.50790078  0.17848552    -0.09300
C1438       C  0.91285762  0.50409123  0.16026344    -0.16900
H1439       H  0.80977812  0.52918934  0.07621676     0.11200
H1440       H  0.84195346  0.52146930  0.10756038     0.10500
H1441       H  0.88333104  0.47734759  0.05438495     0.10500
H1442       H  0.85161263  0.48497999  0.02282099     0.11000
H1443       H  0.94994384  0.48504621  0.11211995     0.11000
H1444       H  0.98220791  0.49178514  0.14408501     0.11000
H1445       H  0.92560633  0.51438667  0.19686921     0.11100
H1446       H  0.89354524  0.50797537  0.16476113     0.10000
C1447       C  0.75743947  0.55962013  0.00517270    -0.03800
C1448       C  0.74023543  0.56140268  0.98521992    -0.09600
C1449       C  0.72204213  0.58021342  0.98472907    -0.17300
C1450       C  0.72059678  0.59782449  0.00413392     0.24900
C1451       C  0.73780460  0.59664146  0.02383348    -0.18900
C1452       C  0.75602975  0.57780216  0.02441101    -0.07800
C1453       C  0.70118155  0.61673131  0.00410843    -0.14300
C1454       C  0.68478647  0.63235700  0.00432572    -0.14000
C1455       C  0.66517753  0.65105593  0.00483660     0.24800
C1456       C  0.66227624  0.66669553  0.02572181    -0.19400
C1457       C  0.64337130  0.68483120  0.02633420    -0.07900
C1458       C  0.62687099  0.68779347  0.00591282    -0.04000
C1459       C  0.62994005  0.67171679  0.98509125    -0.09300
C1460       C  0.64886462  0.65362768  0.98453985    -0.16900
H1461       H  0.74060331  0.54779434  0.97013661     0.11200
H1462       H  0.70889172  0.58080270  0.96933312     0.10500
H1463       H  0.73694090  0.61013506  0.03900457     0.10500
H1464       H  0.76842823  0.57758733  0.04027994     0.11000
H1465       H  0.67459650  0.66479374  0.04168795     0.11000
H1466       H  0.64177108  0.69594149  0.04312110     0.11000
H1467       H  0.61743334  0.67306489  0.96922076     0.11100
H1468       H  0.65069209  0.64157873  0.96828524     0.10000
C1469       C  0.55187289  0.61054217  0.98808459    -0.03800
C1470       C  0.56349499  0.60570574  0.96497167    -0.09600
C1471       C  0.58294751  0.58832415  0.96336528    -0.17300
C1472       C  0.59090938  0.57563478  0.98480353     0.24900
C1473       C  0.57924423  0.58012853  0.00775458    -0.18900
C1474       C  0.55987663  0.59744692  0.00941454    -0.07800
C1475       C  0.61101413  0.55793609  0.98354916    -0.14300
C1476       C  0.62739880  0.54255702  0.98415350    -0.14000
C1477       C  0.64602257  0.52338197  0.98636674     0.24800
C1478       C  0.64838233  0.51023686  0.00882535    -0.19400
C1479       C  0.66576194  0.49090467  0.01088780    -0.07900
C1480       C  0.68093263  0.48438003  0.99042284    -0.04000
C1481       C  0.67864954  0.49791238  0.96800252    -0.09300
C1482       C  0.66130223  0.51734082  0.96602146    -0.16900
H1483       H  0.55776041  0.61552055  0.94823839     0.11200
H1484       H  0.59184879  0.58489614  0.94548806     0.10500
H1485       H  0.58522300  0.57033177  0.02443215     0.10500
H1486       H  0.55131152  0.60070024  0.02747843     0.11000
H1487       H  0.63664695  0.51480567  0.02469428     0.11000
H1488       H  0.66717005  0.48094304  0.02843894     0.11000
H1489       H  0.69030455  0.49354408  0.95203999     0.11100
H1490       H  0.65966997  0.52749575  0.94859018     0.10000
C1491       C  0.31488865  0.48398343  0.98631253    -0.03800
C1492       C  0.32494791  0.49582358  0.00762090    -0.09600
C1493       C  0.34227575  0.51515612  0.00512145    -0.17300
C1494       C  0.34983089  0.52290620  0.98133987     0.24900
C1495       C  0.33993505  0.51129368  0.96000198    -0.18900
C1496       C  0.32250728  0.49196462  0.96245163    -0.07800
C1497       C  0.36798070  0.54257330  0.97908462    -0.14300
C1498       C  0.38360037  0.55878585  0.97901843    -0.14000
C1499       C  0.40272550  0.57751939  0.98133242     0.24800
C1500       C  0.41235333  0.58942528  0.96014794    -0.19400
C1501       C  0.43153457  0.60705022  0.96269197    -0.07900
C1502       C  0.44131801  0.61285603  0.98648153    -0.04000
C1503       C  0.43120180  0.60102958  0.00763802    -0.09300
C1504       C  0.41208092  0.58348706  0.00505024    -0.16900
H1505       H  0.31934448  0.49025367  0.02624711     0.11200
H1506       H  0.34981855  0.52404217  0.02175827     0.10500
H1507       H  0.34569653  0.51715143  0.94150502     0.10500
H1508       H  0.31505167  0.48325841  0.94570150     0.11000
H1509       H  0.40518232  0.58496080  0.94169574     0.11000
H1510       H  0.43880712  0.61596544  0.94606781     0.11000
H1511       H  0.43815643  0.60519569  0.02622926     0.11100
H1512       H  0.40471426  0.57441761  0.02156920     0.10000
loop_ 
_geom_bond_atom_site_label_1 
_geom_bond_atom_site_label_2 
_geom_bond_distance 
_geom_bond_site_symmetry_2 
_ccdc_geom_bond_type 
O1           Cu9   2.001       .  S
O1           C11   1.278   1_554  A
O2           Cu9   2.009       .  S
O2           C12   1.277       .  A
O3           Cu9   1.997       .  S
O3           C13   1.275       .  A
O4           Cu9   1.993       .  S
O4           C14   1.277   1_554  A
O5          Cu10   2.012       .  S
O5           C14   1.279       .  A
O6          Cu10   2.006       .  S
O6           C13   1.277   1_556  A
O7          Cu10   2.015       .  S
O7           C12   1.277   1_556  A
O8          Cu10   2.015       .  S
O8           C11   1.279       .  A
Cu9         Cu10   2.374   1_554  S
C11        C1502   1.480       .  S
C12          C34   1.469       .  S
C13         C134   1.462       .  S
C14        C1469   1.477       .  S
C15          C16   1.546       .  S
C15          C21   1.533       .  S
C15          C19   1.538   1_554  S
C15        C1447   1.538       .  S
C16          H23   1.080       .  S
C16          C17   1.375       .  D
C17        C1425   1.498       .  S
C17          C18   1.546       .  S
C18          C22   1.530       .  S
C18          C20   1.544   1_554  S
C18          H24   1.108       .  S
C19          H25   1.086       .  S
C19          C20   1.370       .  D
C20        C1414   1.490       .  S
C21          H26   1.087       .  S
C21          C22   1.361       .  D
C22          C51   1.465       .  S
C27          C28   1.542   1_554  S
C27          C33   1.529       .  S
C27          C31   1.543       .  S
C27        C1458   1.538       .  S
C28          H35   1.084       .  S
C28          C29   1.376       .  D
C29        C1359   1.504       .  S
C29          C30   1.549   1_556  S
C30          C34   1.538       .  S
C30          C32   1.545       .  S
C30          H36   1.108       .  S
C31          H37   1.082       .  S
C31          C32   1.369       .  D
C32        C1392   1.487       .  S
C33          H38   1.088       .  S
C33          C34   1.360       .  D
O39         Cu47   2.002       .  S
O39          C49   1.277   1_554  A
O40         Cu47   2.009       .  S
O40          C50   1.277       .  A
O41         Cu47   2.005       .  S
O41          C51   1.276       .  A
O42         Cu47   1.998       .  S
O42          C52   1.277   1_554  A
O43         Cu48   2.012       .  S
O43          C52   1.279       .  A
O44         Cu48   2.006       .  S
O44          C51   1.276   1_556  A
O45         Cu48   2.013       .  S
O45          C50   1.277   1_556  A
O46         Cu48   2.012       .  S
O46          C49   1.279       .  A
Cu47        Cu48   2.374   1_554  S
C49        C1480   1.478       .  S
C50          C72   1.469       .  S
C52        C1348   1.478       .  S
C53          C54   1.545       .  S
C53          C59   1.530       .  S
C53          C57   1.540   1_554  S
C53        C1315   1.536       .  S
C54          H61   1.080       .  S
C54          C55   1.373       .  D
C55        C1282   1.490       .  S
C55          C56   1.543   1_554  S
C56          C60   1.535   1_556  S
C56          C58   1.542       .  S
C56          H62   1.109       .  S
C57          H63   1.086       .  S
C57          C58   1.371       .  D
C58        C1293   1.491       .  S
C59          H64   1.087       .  S
C59          C60   1.361       .  D
C60          C89   1.467   1_554  S
C65          C66   1.538   1_554  S
C65          C71   1.531       .  S
C65          C69   1.542       .  S
C65        C1326   1.537       .  S
C66          H73   1.085       .  S
C66          C67   1.372       .  D
C67        C1227   1.497       .  S
C67          C68   1.549   1_556  S
C68          C72   1.538       .  S
C68          C70   1.546       .  S
C68          H74   1.109       .  S
C69          H75   1.081       .  S
C69          C70   1.369       .  D
C70        C1249   1.488       .  S
C71          H76   1.087       .  S
C71          C72   1.362       .  D
O77         Cu85   1.998       .  S
O77          C87   1.277   1_554  A
O78         Cu85   2.003       .  S
O78          C88   1.276   1_554  A
O79         Cu85   2.007       .  S
O79          C89   1.277   1_554  A
O80         Cu85   1.999       .  S
O80          C90   1.277   1_554  A
O81         Cu86   2.014       .  S
O81          C90   1.279       .  A
O82         Cu86   2.011       .  S
O82          C89   1.277       .  A
O83         Cu86   2.007       .  S
O83          C88   1.276       .  A
O84         Cu86   2.014       .  S
O84          C87   1.279       .  A
Cu85        Cu86   2.374   1_554  S
C87        C1337   1.478       .  S
C88         C110   1.465   1_556  S
C90        C1205   1.479       .  S
C91          C92   1.542       .  S
C91          C97   1.529       .  S
C91          C95   1.535   1_554  S
C91        C1183   1.534       .  S
C92          H99   1.081       .  S
C92          C93   1.371       .  D
C93        C1150   1.490       .  S
C93          C94   1.547       .  S
C94          C98   1.537       .  S
C94          C96   1.551   1_554  S
C94         H100   1.108       .  S
C95         H101   1.084       .  S
C95          C96   1.372       .  D
C96        C1161   1.501       .  S
C97         H102   1.088       .  S
C97          C98   1.361       .  D
C98         C150   1.468   1_554  S
C103        C104   1.535   1_554  S
C103        C109   1.530       .  S
C103        C107   1.542       .  S
C103       C1194   1.534       .  S
C104        H111   1.084       .  S
C104        C105   1.374       .  D
C105       C1128   1.500       .  S
C105        C106   1.549   1_556  S
C106        C110   1.533       .  S
C106        C108   1.545       .  S
C106        H112   1.107   1_554  S
C107        H113   1.081       .  S
C107        C108   1.371       .  D
C108       C1106   1.490       .  S
C109        H114   1.088       .  S
C109        C110   1.359       .  D
C115        C116   1.545   1_554  S
C115        C121   1.532       .  S
C115        C119   1.536       .  S
C115       C1073   1.541       .  S
C116        H123   1.078       .  S
C116        C117   1.373       .  D
C117       C1051   1.503       .  S
C117        C118   1.548   1_556  S
C118        C122   1.534       .  S
C118        C120   1.549       .  S
C118        H124   1.108       .  S
C119        H125   1.085       .  S
C119        C120   1.374       .  D
C120       C1029   1.494       .  S
C121        H126   1.087   1_554  S
C121        C122   1.361       .  D
C122        C151   1.469   1_554  S
C127        C128   1.540       .  S
C127        C133   1.530       .  S
C127        C131   1.545   1_554  S
C127       C1084   1.539       .  S
C128        H135   1.085       .  S
C128        C129   1.373       .  D
C129       C1007   1.492       .  S
C129        C130   1.545       .  S
C130        C134   1.530       .  S
C130        C132   1.541   1_554  S
C130        H136   1.109       .  S
C131        H137   1.081       .  S
C131        C132   1.371       .  D
C132        C996   1.489       .  S
C133        H138   1.087       .  S
C133        C134   1.362       .  D
O139       Cu147   2.012       .  S
O139        C149   1.279       .  A
O140       Cu147   2.012       .  S
O140        C150   1.277       .  A
O141       Cu147   2.012       .  S
O141        C151   1.277       .  A
O142       Cu147   2.011       .  S
O142        C152   1.278       .  A
O143       Cu148   2.004       .  S
O143        C152   1.278   1_554  A
O144       Cu148   2.010       .  S
O144        C151   1.277   1_554  A
O145       Cu148   2.007       .  S
O145        C150   1.277   1_554  A
O146       Cu148   2.000       .  S
O146        C149   1.277   1_554  A
Cu147      Cu148   2.373   1_556  S
C149       C1491   1.479       .  S
C152       C1216   1.480       .  S
O153       Cu161   2.015       .  S
O153        C163   1.278       .  A
O154       Cu161   2.014       .  S
O154        C164   1.279       .  A
O155       Cu161   2.021       .  S
O155        C165   1.279       .  A
O156       Cu161   2.020       .  S
O156        C166   1.278       .  A
O157       Cu162   2.011       .  S
O157        C166   1.277       .  A
O158       Cu162   2.003       .  S
O158        C165   1.278       .  A
O159       Cu162   1.993       .  S
O159        C164   1.276       .  A
O160       Cu162   2.002       .  S
O160        C163   1.276       .  A
Cu161      Cu162   2.373       .  S
C163        C224   1.467       .  S
C164        C941   1.478       .  S
C165        C963   1.483       .  S
C166        C186   1.472       .  S
C167        C168   1.539       .  S
C167        C173   1.531       .  S
C167        C171   1.539       .  S
C167        C919   1.535       .  S
C168        H175   1.080       .  S
C168        C169   1.370       .  D
C169        C875   1.496       .  S
C169        C170   1.551       .  S
C170        C174   1.539       .  S
C170        C172   1.549       .  S
C170        H176   1.109       .  S
C171        H177   1.085       .  S
C171        C172   1.373       .  D
C172        C897   1.498       .  S
C173        H178   1.088       .  S
C173        C174   1.361       .  D
C174        C203   1.472       .  S
C179        C180   1.534       .  S
C179        C185   1.533       .  S
C179        C183   1.542       .  S
C179        C930   1.535       .  S
C180        H187   1.086       .  S
C180        C181   1.368       .  D
C181       C1304   1.492       .  S
C181        C182   1.548       .  S
C182        C186   1.538       .  S
C182        C184   1.551       .  S
C182        H188   1.109       .  S
C183        H189   1.079       .  S
C183        C184   1.373       .  D
C184       C1370   1.500       .  S
C185        H190   1.087       .  S
C185        C186   1.362       .  D
O191       Cu199   2.000       .  S
O191        C201   1.278       .  A
O192       Cu199   2.007       .  S
O192        C202   1.277       .  A
O193       Cu199   2.011       .  S
O193        C203   1.277       .  A
O194       Cu199   2.011       .  S
O194        C204   1.279       .  A
O195       Cu200   2.022       .  S
O195        C204   1.280       .  A
O196       Cu200   2.020       .  S
O196        C203   1.278       .  A
O197       Cu200   2.013       .  S
O197        C202   1.277       .  A
O198       Cu200   2.016       .  S
O198        C201   1.278       .  A
Cu199      Cu200   2.373       .  S
C201        C952   1.477       .  S
C202        C286   1.468       .  S
C204        C853   1.486       .  S
C205        C206   1.539       .  S
C205        C211   1.530       .  S
C205        C209   1.541       .  S
C205        C842   1.533       .  S
C206        H213   1.085       .  S
C206        C207   1.373       .  D
C207        C787   1.498       .  S
C207        C208   1.546       .  S
C208        C212   1.535       .  S
C208        C210   1.545       .  S
C208        H214   1.109       .  S
C209        H215   1.082       .  S
C209        C210   1.368       .  D
C210        C820   1.483       .  S
C211        H216   1.087       .  S
C211        C212   1.361       .  D
C212        C241   1.466       .  S
C217        C218   1.544       .  S
C217        C223   1.531       .  S
C217        C221   1.538       .  S
C217        C831   1.534       .  S
C218        H225   1.080       .  S
C218        C219   1.372       .  D
C219        C985   1.490       .  S
C219        C220   1.543       .  S
C220        C224   1.533       .  S
C220        C222   1.541       .  S
C220        H226   1.109       .  S
C221        H227   1.086       .  S
C221        C222   1.370       .  D
C222       C1117   1.487       .  S
C223        H228   1.087       .  S
C223        C224   1.361       .  D
O229       Cu237   2.029       .  S
O229        C239   1.281       .  A
O230       Cu237   2.019       .  S
O230        C240   1.278       .  A
O231       Cu237   2.012       .  S
O231        C241   1.277       .  A
O232       Cu237   2.020       .  S
O232        C242   1.279       .  A
O233       Cu238   1.998       .  S
O233        C242   1.278       .  A
O234       Cu238   2.004       .  S
O234        C241   1.276       .  A
O235       Cu238   1.998       .  S
O235        C240   1.275       .  A
O236       Cu238   1.993       .  S
O236        C239   1.277       .  A
Cu237      Cu238   2.373       .  S
C239        C974   1.483       .  S
C240        C262   1.467       .  S
C242        C765   1.482       .  S
C243        C244   1.546       .  S
C243        C249   1.531       .  S
C243        C247   1.538       .  S
C243        C743   1.538       .  S
C244        H251   1.081       .  S
C244        C245   1.371       .  D
C245       C1095   1.488       .  S
C245        C246   1.541       .  S
C246        C250   1.537       .  S
C246        C248   1.548       .  S
C246        H252   1.109       .  S
C247        H253   1.085       .  S
C247        C248   1.373       .  D
C248       C1018   1.495       .  S
C249        H254   1.088       .  S
C249        C250   1.361       .  D
C250        C303   1.471       .  S
C255        C256   1.543       .  S
C255        C261   1.532       .  S
C255        C259   1.538       .  S
C255        C754   1.537       .  S
C256        H263   1.082       .  S
C256        C257   1.372       .  D
C257        C721   1.491       .  S
C257        C258   1.548       .  S
C258        C262   1.534       .  S
C258        C260   1.546       .  S
C258        H264   1.108       .  S
C259        H265   1.085       .  S
C259        C260   1.373       .  D
C260        C699   1.499       .  S
C261        H266   1.087       .  S
C261        C262   1.361       .  D
C267        C268   1.539       .  S
C267        C273   1.531       .  S
C267        C271   1.549       .  S
C267        C688   1.538       .  S
C268        H275   1.086       .  S
C268        C269   1.370       .  D
C269       C1381   1.488       .  S
C269        C270   1.543       .  S
C270        C274   1.537       .  S
C270        C272   1.540       .  S
C270        H276   1.109       .  S
C271        H277   1.080       .  S
C271        C272   1.372       .  D
C272       C1271   1.490       .  S
C273        H278   1.087       .  S
C273        C274   1.361       .  D
C274        C302   1.470       .  S
C279        C280   1.543       .  S
C279        C285   1.528       .  S
C279        C283   1.537       .  S
C279        C677   1.537       .  S
C280        H287   1.081       .  S
C280        C281   1.371       .  D
C281        C655   1.496       .  S
C281        C282   1.546       .  S
C282        C286   1.537       .  S
C282        C284   1.554       .  S
C282        H288   1.107       .  S
C283        H289   1.083       .  S
C283        C284   1.377       .  D
C284        C633   1.505       .  S
C285        H290   1.088       .  S
C285        C286   1.359       .  D
O291       Cu299   2.018       .  S
O291        C301   1.279       .  A
O292       Cu299   2.019       .  S
O292        C302   1.278       .  A
O293       Cu299   2.018       .  S
O293        C303   1.278       .  A
O294       Cu299   2.023       .  S
O294        C304   1.279       .  A
O295       Cu300   2.007       .  S
O295        C304   1.279       .  A
O296       Cu300   2.010       .  S
O296        C303   1.277       .  A
O297       Cu300   2.007       .  S
O297        C302   1.277       .  A
O298       Cu300   2.003       .  S
O298        C301   1.278       .  A
Cu299      Cu300   2.372       .  S
C301        C776   1.482       .  S
C304        C864   1.484       .  S
O305       Cu313   2.012       .  S
O305        C315   1.278       .  A
O306       Cu313   2.006       .  S
O306        C316   1.278   1_655  A
O307       Cu313   1.996       .  S
O307        C317   1.277   1_655  A
O308       Cu313   2.004       .  S
O308        C318   1.276       .  A
O309       Cu314   2.014       .  S
O309        C318   1.278   1_455  A
O310       Cu314   2.014       .  S
O310        C317   1.279       .  A
O311       Cu314   2.012       .  S
O311        C316   1.278       .  A
O312       Cu314   2.015       .  S
O312        C315   1.277   1_455  A
Cu313      Cu314   2.373   1_655  S
C315        C414   1.471       .  S
C316        C622   1.481       .  S
C317        C600   1.478       .  S
C318        C338   1.468       .  S
C319        C320   1.538   1_655  S
C319        C325   1.533       .  S
C319        C323   1.542       .  S
C319        C567   1.538       .  S
C320        H327   1.085       .  S
C320        C321   1.372       .  D
C321        C809   1.497       .  S
C321        C322   1.548   1_455  S
C322        C326   1.535       .  S
C322        C324   1.548       .  S
C322        H328   1.108       .  S
C323        H329   1.079       .  S
C323        C324   1.372       .  D
C324        C886   1.497       .  S
C325        H330   1.087       .  S
C325        C326   1.362       .  D
C326        C354   1.471       .  S
C331        C332   1.541       .  S
C331        C337   1.531       .  S
C331        C335   1.537   1_655  S
C331        C578   1.537       .  S
C332        H339   1.080       .  S
C332        C333   1.370       .  D
C333       C1403   1.493       .  S
C333        C334   1.549       .  S
C334        C338   1.537       .  S
C334        C336   1.548   1_655  S
C334        H340   1.109       .  S
C335        H341   1.085       .  S
C335        C336   1.372       .  D
C336       C1062   1.496       .  S
C337        H342   1.087       .  S
C337        C338   1.362       .  D
O343       Cu351   2.002       .  S
O343        C353   1.278   1_655  A
O344       Cu351   2.015       .  S
O344        C354   1.278       .  A
O345       Cu351   2.008       .  S
O345        C355   1.277       .  A
O346       Cu351   1.997       .  S
O346        C356   1.277   1_655  A
O347       Cu352   2.021       .  S
O347        C356   1.280       .  A
O348       Cu352   2.021       .  S
O348        C355   1.278   1_455  A
O349       Cu352   2.013       .  S
O349        C354   1.277   1_455  A
O350       Cu352   2.008       .  S
O350        C353   1.278       .  A
Cu351      Cu352   2.373   1_655  S
C353        C545   1.478       .  S
C355        C376   1.473       .  S
C356        C611   1.481       .  S
C357        C358   1.540   1_655  S
C357        C363   1.534       .  S
C357        C361   1.543       .  S
C357        C534   1.541       .  S
C358        H365   1.084       .  S
C358        C359   1.377       .  D
C359       C1040   1.502       .  S
C359        C360   1.547   1_455  S
C360        C364   1.531       .  S
C360        C362   1.541       .  S
C360        H366   1.107   1_655  S
C361        H367   1.081       .  S
C361        C362   1.370       .  D
C362       C1436   1.485       .  S
C363        H368   1.087       .  S
C363        C364   1.362       .  D
C364        C393   1.468   1_655  S
C369        C370   1.543       .  S
C369        C375   1.534       .  S
C369        C373   1.538   1_655  S
C369        C523   1.541       .  S
C370        H377   1.081       .  S
C370        C371   1.370       .  D
C371        C644   1.489       .  S
C371        C372   1.546       .  S
C372        C376   1.535       .  S
C372        C374   1.548   1_655  S
C372        H378   1.108       .  S
C373        H379   1.084       .  S
C373        C374   1.374       .  D
C374        C732   1.501       .  S
C375        H380   1.087       .  S
C375        C376   1.364       .  D
O381       Cu389   2.014       .  S
O381        C391   1.279       .  A
O382       Cu389   2.014       .  S
O382        C392   1.278       .  A
O383       Cu389   2.014       .  S
O383        C393   1.278       .  A
O384       Cu389   2.015       .  S
O384        C394   1.279       .  A
O385       Cu390   1.995       .  S
O385        C394   1.277   1_655  A
O386       Cu390   2.003       .  S
O386        C393   1.276   1_655  A
O387       Cu390   2.007       .  S
O387        C392   1.276   1_655  A
O388       Cu390   1.996       .  S
O388        C391   1.277   1_655  A
Cu389      Cu390   2.374   1_455  S
C391        C556   1.479       .  S
C392        C438   1.469   1_455  S
C394        C512   1.479       .  S
C395        C396   1.541   1_455  S
C395        C401   1.530       .  S
C395        C399   1.536       .  S
C395        C490   1.536       .  S
C396        H403   1.080       .  S
C396        C397   1.371       .  D
C397        C908   1.497       .  S
C397        C398   1.550   1_655  S
C398        C402   1.537       .  S
C398        C400   1.551       .  S
C398        H404   1.109       .  S
C399        H405   1.086       .  S
C399        C400   1.372       .  D
C400        C798   1.494       .  S
C401        H406   1.088       .  S
C401        C402   1.361       .  D
C402        C455   1.470       .  S
C407        C408   1.534   1_655  S
C407        C413   1.530       .  S
C407        C411   1.542       .  S
C407        C479   1.534       .  S
C408        H415   1.086       .  S
C408        C409   1.370       .  D
C409       C1172   1.496       .  S
C409        C410   1.551   1_455  S
C410        C414   1.539       .  S
C410        C412   1.551       .  S
C410        H416   1.109       .  S
C411        H417   1.080       .  S
C411        C412   1.372       .  D
C412       C1238   1.497       .  S
C413        H418   1.088       .  S
C413        C414   1.361       .  D
C419        C420   1.545       .  S
C419        C425   1.533       .  S
C419        C423   1.538   1_455  S
C419        C468   1.541       .  S
C420        H427   1.079       .  S
C420        C421   1.371       .  D
C421        C710   1.496       .  S
C421        C422   1.545       .  S
C422        C426   1.535       .  S
C422        C424   1.551   1_455  S
C422        H428   1.108       .  S
C423        H429   1.085       .  S
C423        C424   1.375       .  D
C424        C666   1.500       .  S
C425        H430   1.087       .  S
C425        C426   1.361       .  D
C426        C454   1.469       .  S
C431        C432   1.538   1_455  S
C431        C437   1.532   1_455  S
C431        C435   1.545       .  S
C431        C457   1.539       .  S
C432        H439   1.084       .  S
C432        C433   1.375       .  D
C433       C1260   1.503       .  S
C433        C434   1.552       .  S
C434        C438   1.532       .  S
C434        C436   1.543   1_655  S
C434        H440   1.108       .  S
C435        H441   1.081       .  S
C435        C436   1.371       .  D
C436       C1139   1.492       .  S
C437        H442   1.087   1_655  S
C437        C438   1.362       .  D
O443       Cu451   2.001       .  S
O443        C453   1.278   1_655  A
O444       Cu451   2.008       .  S
O444        C454   1.277   1_655  A
O445       Cu451   2.006       .  S
O445        C455   1.277   1_655  A
O446       Cu451   2.000       .  S
O446        C456   1.277   1_655  A
O447       Cu452   2.016       .  S
O447        C456   1.279       .  A
O448       Cu452   2.019       .  S
O448        C455   1.278       .  A
O449       Cu452   2.015       .  S
O449        C454   1.277       .  A
O450       Cu452   2.009       .  S
O450        C453   1.278       .  A
Cu451      Cu452   2.373   1_655  S
C453        C589   1.478       .  S
C456        C501   1.480       .  S
C457        C458   1.412   1_455  A
C457        C462   1.414       .  A
C458        C459   1.403       .  A
C458        H471   1.083       .  S
C459        C460   1.400       .  A
C459        H472   1.083       .  S
C460        C461   1.400   1_655  A
C460        C463   1.453       .  S
C461        C462   1.404       .  A
C461        H473   1.084       .  S
C462        H474   1.077       .  S
C463        C464   1.214       .  T
C464        C465   1.453       .  S
C465        C466   1.399   1_655  A
C465        C470   1.400       .  A
C466        C467   1.403       .  A
C466        H475   1.084       .  S
C467        C468   1.415       .  A
C467        H476   1.076       .  S
C468        C469   1.413   1_455  A
C469        C470   1.404       .  A
C469        H477   1.083       .  S
C470        H478   1.083       .  S
C479        C480   1.412   1_655  A
C479        C484   1.413       .  A
C480        C481   1.400       .  A
C480        H493   1.083       .  S
C481        C482   1.398       .  A
C481        H494   1.083       .  S
C482        C483   1.400   1_455  A
C482        C485   1.447       .  S
C483        C484   1.402       .  A
C483        H495   1.084       .  S
C484        H496   1.077       .  S
C485        C486   1.210       .  T
C486        C487   1.447       .  S
C487        C488   1.398   1_455  A
C487        C492   1.399       .  A
C488        C489   1.400       .  A
C488        H497   1.084       .  S
C489        C490   1.414   1_655  A
C489        H498   1.076       .  S
C490        C491   1.412       .  A
C491        C492   1.401       .  A
C491        H499   1.083       .  S
C492        H500   1.083       .  S
C501        C502   1.408       .  A
C501        C506   1.407   1_455  A
C502        C503   1.400       .  A
C502        H515   1.083       .  S
C503        C504   1.400       .  A
C503        H516   1.083       .  S
C504        C505   1.398   1_455  A
C504        C507   1.438       .  S
C505        C506   1.396       .  A
C505        H517   1.084       .  S
C506        H518   1.083       .  S
C507        C508   1.205       .  T
C508        C509   1.437       .  S
C509        C510   1.398   1_455  A
C509        C514   1.400       .  A
C510        C511   1.395       .  A
C510        H519   1.084       .  S
C511        C512   1.407   1_655  A
C511        H520   1.083       .  S
C512        C513   1.407       .  A
C513        C514   1.400       .  A
C513        H521   1.083       .  S
C514        H522   1.083       .  S
C523        C524   1.414       .  A
C523        C528   1.413   1_655  A
C524        C525   1.404       .  A
C524        H537   1.077       .  S
C525        C526   1.401       .  A
C525        H538   1.083       .  S
C526        C527   1.400   1_655  A
C526        C529   1.454       .  S
C527        C528   1.403       .  A
C527        H539   1.083       .  S
C528        H540   1.083       .  S
C529        C530   1.214       .  T
C530        C531   1.454       .  S
C531        C532   1.400   1_655  A
C531        C536   1.401       .  A
C532        C533   1.403       .  A
C532        H541   1.083       .  S
C533        C534   1.412   1_455  A
C533        H542   1.083       .  S
C534        C535   1.414       .  A
C535        C536   1.405       .  A
C535        H543   1.077       .  S
C536        H544   1.084       .  S
C545        C546   1.408       .  A
C545        C550   1.406   1_455  A
C546        C547   1.399       .  A
C546        H559   1.083       .  S
C547        C548   1.400       .  A
C547        H560   1.083       .  S
C548        C549   1.398   1_455  A
C548        C551   1.437       .  S
C549        C550   1.395       .  A
C549        H561   1.084       .  S
C550        H562   1.083       .  S
C551        C552   1.204       .  T
C552        C553   1.437       .  S
C553        C554   1.398   1_455  A
C553        C558   1.400       .  A
C554        C555   1.394       .  A
C554        H563   1.084       .  S
C555        C556   1.407   1_655  A
C555        H564   1.083       .  S
C556        C557   1.407       .  A
C557        C558   1.400       .  A
C557        H565   1.083       .  S
C558        H566   1.083       .  S
C567        C568   1.414       .  A
C567        C572   1.412   1_655  A
C568        C569   1.401       .  A
C568        H581   1.076       .  S
C569        C570   1.399       .  A
C569        H582   1.084       .  S
C570        C571   1.399   1_655  A
C570        C573   1.448       .  S
C571        C572   1.402       .  A
C571        H583   1.083       .  S
C572        H584   1.083       .  S
C573        C574   1.211       .  T
C574        C575   1.448       .  S
C575        C576   1.399   1_655  A
C575        C580   1.399       .  A
C576        C577   1.401       .  A
C576        H585   1.083       .  S
C577        C578   1.412   1_455  A
C577        H586   1.083       .  S
C578        C579   1.414       .  A
C579        C580   1.401       .  A
C579        H587   1.076       .  S
C580        H588   1.084       .  S
C589        C590   1.407   1_455  A
C589        C594   1.407       .  A
C590        C591   1.395       .  A
C590        H603   1.083       .  S
C591        C592   1.398   1_655  A
C591        H604   1.084       .  S
C592        C593   1.399       .  A
C592        C595   1.435       .  S
C593        C594   1.398       .  A
C593        H605   1.083       .  S
C594        H606   1.083       .  S
C595        C596   1.203       .  T
C596        C597   1.435       .  S
C597        C598   1.399       .  A
C597        C602   1.398   1_455  A
C598        C599   1.399       .  A
C598        H607   1.083       .  S
C599        C600   1.407       .  A
C599        H608   1.083       .  S
C600        C601   1.407   1_455  A
C601        C602   1.395       .  A
C601        H609   1.083       .  S
C602        H610   1.084       .  S
C611        C612   1.407   1_455  A
C611        C616   1.407       .  A
C612        C613   1.395       .  A
C612        H625   1.083       .  S
C613        C614   1.398   1_655  A
C613        H626   1.084       .  S
C614        C615   1.401       .  A
C614        C617   1.439       .  S
C615        C616   1.401       .  A
C615        H627   1.083       .  S
C616        H628   1.083       .  S
C617        C618   1.205       .  T
C618        C619   1.439       .  S
C619        C620   1.399       .  A
C619        C624   1.399   1_455  A
C620        C621   1.400       .  A
C620        H629   1.083       .  S
C621        C622   1.408       .  A
C621        H630   1.083       .  S
C622        C623   1.407   1_455  A
C623        C624   1.397       .  A
C623        H631   1.083       .  S
C624        H632   1.084       .  S
C633        C634   1.411       .  A
C633        C638   1.413       .  A
C634        C635   1.402       .  A
C634        H647   1.077       .  S
C635        C636   1.399       .  A
C635        H648   1.084       .  S
C636        C637   1.397       .  A
C636        C639   1.444       .  S
C637        C638   1.398       .  A
C637        H649   1.084       .  S
C638        H650   1.080       .  S
C639        C640   1.209       .  T
C640        C641   1.444       .  S
C641        C642   1.400       .  A
C641        C646   1.400       .  A
C642        C643   1.400       .  A
C642        H651   1.084       .  S
C643        C644   1.408       .  A
C643        H652   1.083       .  S
C644        C645   1.404       .  A
C645        C646   1.400       .  A
C645        H653   1.079       .  S
C646        H654   1.083       .  S
C655        C656   1.408       .  A
C655        C660   1.409       .  A
C656        C657   1.404       .  A
C656        H669   1.079       .  S
C657        C658   1.402   1_565  A
C657        H670   1.083       .  S
C658        C659   1.399       .  A
C658        C661   1.447       .  S
C659        C660   1.398   1_545  A
C659        H671   1.084       .  S
C660        H672   1.082   1_565  S
C661        C662   1.210       .  T
C662        C663   1.447       .  S
C663        C664   1.400       .  A
C663        C668   1.399       .  A
C664        C665   1.401       .  A
C664        H673   1.083       .  S
C665        C666   1.410       .  A
C665        H674   1.082       .  S
C666        C667   1.409       .  A
C667        C668   1.401       .  A
C667        H675   1.076       .  S
C668        H676   1.083       .  S
C677        C678   1.414       .  A
C677        C682   1.412       .  A
C678        C679   1.403       .  A
C678        H691   1.077       .  S
C679        C680   1.400       .  A
C679        H692   1.084       .  S
C680        C681   1.399       .  A
C680        C683   1.450       .  S
C681        C682   1.401       .  A
C681        H693   1.083       .  S
C682        H694   1.083       .  S
C683        C684   1.212       .  T
C684        C685   1.450       .  S
C685        C686   1.400       .  A
C685        C690   1.399       .  A
C686        C687   1.402       .  A
C686        H695   1.083       .  S
C687        C688   1.412       .  A
C687        H696   1.083       .  S
C688        C689   1.413       .  A
C689        C690   1.402       .  A
C689        H697   1.076       .  S
C690        H698   1.084       .  S
C699        C700   1.411       .  A
C699        C704   1.409       .  A
C700        C701   1.399   1_565  A
C700        H713   1.081       .  S
C701        C702   1.399       .  A
C701        H714   1.084       .  S
C702        C703   1.398   1_545  A
C702        C705   1.443       .  S
C703        C704   1.400       .  A
C703        H715   1.084       .  S
C704        H716   1.077       .  S
C705        C706   1.208       .  T
C706        C707   1.443       .  S
C707        C708   1.399       .  A
C707        C712   1.399       .  A
C708        C709   1.400       .  A
C708        H717   1.084       .  S
C709        C710   1.407       .  A
C709        H718   1.076       .  S
C710        C711   1.410       .  A
C711        C712   1.399       .  A
C711        H719   1.082       .  S
C712        H720   1.083       .  S
C721        C722   1.408       .  A
C721        C726   1.405       .  A
C722        C723   1.401       .  A
C722        H735   1.083       .  S
C723        C724   1.401       .  A
C723        H736   1.083       .  S
C724        C725   1.400       .  A
C724        C727   1.446       .  S
C725        C726   1.401       .  A
C725        H737   1.083       .  S
C726        H738   1.078       .  S
C727        C728   1.210       .  T
C728        C729   1.446       .  S
C729        C730   1.400       .  A
C729        C734   1.398       .  A
C730        C731   1.403       .  A
C730        H739   1.083       .  S
C731        C732   1.410       .  A
C731        H740   1.078       .  S
C732        C733   1.411       .  A
C733        C734   1.399       .  A
C733        H741   1.081       .  S
C734        H742   1.084       .  S
C743        C744   1.414       .  A
C743        C748   1.412       .  A
C744        C745   1.404       .  A
C744        H757   1.077       .  S
C745        C746   1.400       .  A
C745        H758   1.084       .  S
C746        C747   1.399       .  A
C746        C749   1.451       .  S
C747        C748   1.401       .  A
C747        H759   1.083       .  S
C748        H760   1.083       .  S
C749        C750   1.212       .  T
C750        C751   1.450       .  S
C751        C752   1.401       .  A
C751        C756   1.399       .  A
C752        C753   1.404       .  A
C752        H761   1.083       .  S
C753        C754   1.413       .  A
C753        H762   1.078       .  S
C754        C755   1.413       .  A
C755        C756   1.400       .  A
C755        H763   1.083       .  S
C756        H764   1.084       .  S
C765        C766   1.408       .  A
C765        C770   1.407       .  A
C766        C767   1.402       .  A
C766        H779   1.083       .  S
C767        C768   1.401       .  A
C767        H780   1.083       .  S
C768        C769   1.398       .  A
C768        C771   1.440       .  S
C769        C770   1.395       .  A
C769        H781   1.084       .  S
C770        H782   1.083       .  S
C771        C772   1.206       .  T
C772        C773   1.440       .  S
C773        C774   1.399       .  A
C773        C778   1.400       .  A
C774        C775   1.396       .  A
C774        H783   1.084       .  S
C775        C776   1.407       .  A
C775        H784   1.083       .  S
C776        C777   1.408       .  A
C777        C778   1.401       .  A
C777        H785   1.083       .  S
C778        H786   1.083       .  S
C787        C788   1.409       .  A
C787        C792   1.411       .  A
C788        C789   1.402       .  A
C788        H801   1.079       .  S
C789        C790   1.400   1_565  A
C789        H802   1.083       .  S
C790        C791   1.398       .  A
C790        C793   1.445       .  S
C791        C792   1.398   1_545  A
C791        H803   1.084       .  S
C792        H804   1.081       .  S
C793        C794   1.209       .  T
C794        C795   1.445       .  S
C795        C796   1.400       .  A
C795        C800   1.400       .  A
C796        C797   1.401       .  A
C796        H805   1.084       .  S
C797        C798   1.410       .  A
C797        H806   1.082       .  S
C798        C799   1.406       .  A
C799        C800   1.401       .  A
C799        H807   1.079       .  S
C800        H808   1.083       .  S
C809        C810   1.410       .  A
C809        C814   1.408       .  A
C810        C811   1.401       .  A
C810        H823   1.082       .  S
C811        C812   1.400       .  A
C811        H824   1.083       .  S
C812        C813   1.398       .  A
C812        C815   1.444       .  S
C813        C814   1.400       .  A
C813        H825   1.084       .  S
C814        H826   1.073       .  S
C815        C816   1.208       .  T
C816        C817   1.444       .  S
C817        C818   1.402       .  A
C817        C822   1.400       .  A
C818        C819   1.401       .  A
C818        H827   1.083       .  S
C819        C820   1.403       .  A
C819        H828   1.081       .  S
C820        C821   1.406       .  A
C821        C822   1.399       .  A
C821        H829   1.083       .  S
C822        H830   1.083       .  S
C831        C832   1.413       .  A
C831        C836   1.412       .  A
C832        C833   1.401       .  A
C832        H845   1.077       .  S
C833        C834   1.399       .  A
C833        H846   1.084       .  S
C834        C835   1.399       .  A
C834        C837   1.446       .  S
C835        C836   1.400       .  A
C835        H847   1.084       .  S
C836        H848   1.083       .  S
C837        C838   1.210       .  T
C838        C839   1.446       .  S
C839        C840   1.398       .  A
C839        C844   1.400       .  A
C840        C841   1.399       .  A
C840        H849   1.084       .  S
C841        C842   1.412       .  A
C841        H850   1.083       .  S
C842        C843   1.412       .  A
C843        C844   1.402       .  A
C843        H851   1.077       .  S
C844        H852   1.084       .  S
C853        C854   1.409       .  A
C853        C858   1.407       .  A
C854        C855   1.403       .  A
C854        H867   1.083       .  S
C855        C856   1.401       .  A
C855        H868   1.083   1_565  S
C856        C857   1.400       .  A
C856        C859   1.444       .  S
C857        C858   1.398       .  A
C857        H869   1.084       .  S
C858        H870   1.083       .  S
C859        C860   1.209       .  T
C860        C861   1.444       .  S
C861        C862   1.399       .  A
C861        C866   1.402       .  A
C862        C863   1.396       .  A
C862        H871   1.084       .  S
C863        C864   1.407       .  A
C863        H872   1.083       .  S
C864        C865   1.409       .  A
C865        C866   1.404       .  A
C865        H873   1.083       .  S
C866        H874   1.083   1_565  S
C875        C876   1.411       .  A
C875        C880   1.406       .  A
C876        C877   1.398       .  A
C876        H889   1.082       .  S
C877        C878   1.398       .  A
C877        H890   1.084       .  S
C878        C879   1.400       .  A
C878        C881   1.443       .  S
C879        C880   1.401       .  A
C879        H891   1.083       .  S
C880        H892   1.076       .  S
C881        C882   1.208       .  T
C882        C883   1.443       .  S
C883        C884   1.399       .  A
C883        C888   1.398       .  A
C884        C885   1.401       .  A
C884        H893   1.084       .  S
C885        C886   1.408       .  A
C885        H894   1.073       .  S
C886        C887   1.411       .  A
C887        C888   1.398       .  A
C887        H895   1.082       .  S
C888        H896   1.083       .  S
C897        C898   1.407       .  A
C897        C902   1.410       .  A
C898        C899   1.400       .  A
C898        H911   1.076       .  S
C899        C900   1.399   1_565  A
C899        H912   1.084       .  S
C900        C901   1.400       .  A
C900        C903   1.446       .  S
C901        C902   1.402   1_545  A
C901        H913   1.083       .  S
C902        H914   1.082   1_565  S
C903        C904   1.210       .  T
C904        C905   1.446       .  S
C905        C906   1.398       .  A
C905        C910   1.402       .  A
C906        C907   1.398       .  A
C906        H915   1.084       .  S
C907        C908   1.411       .  A
C907        H916   1.082       .  S
C908        C909   1.407       .  A
C909        C910   1.403       .  A
C909        H917   1.079       .  S
C910        H918   1.083       .  S
C919        C920   1.412       .  A
C919        C924   1.414       .  A
C920        C921   1.401       .  A
C920        H933   1.083       .  S
C921        C922   1.399       .  A
C921        H934   1.083       .  S
C922        C923   1.398       .  A
C922        C925   1.446       .  S
C923        C924   1.401       .  A
C923        H935   1.084       .  S
C924        H936   1.076       .  S
C925        C926   1.210       .  T
C926        C927   1.446       .  S
C927        C928   1.399       .  A
C927        C932   1.398       .  A
C928        C929   1.401       .  A
C928        H937   1.084       .  S
C929        C930   1.413       .  A
C929        H938   1.077       .  S
C930        C931   1.412       .  A
C931        C932   1.400       .  A
C931        H939   1.083       .  S
C932        H940   1.084       .  S
C941        C942   1.407       .  A
C941        C946   1.407       .  A
C942        C943   1.398       .  A
C942        H955   1.083       .  S
C943        C944   1.399       .  A
C943        H956   1.083       .  S
C944        C945   1.399       .  A
C944        C947   1.436       .  S
C945        C946   1.395       .  A
C945        H957   1.084       .  S
C946        H958   1.083       .  S
C947        C948   1.204       .  T
C948        C949   1.436       .  S
C949        C950   1.398       .  A
C949        C954   1.401       .  A
C950        C951   1.394       .  A
C950        H959   1.084       .  S
C951        C952   1.406       .  A
C951        H960   1.083       .  S
C952        C953   1.407       .  A
C953        C954   1.401       .  A
C953        H961   1.083       .  S
C954        H962   1.083       .  S
C963        C964   1.407       .  A
C963        C968   1.408       .  A
C964        C965   1.396       .  A
C964        H977   1.083       .  S
C965        C966   1.399       .  A
C965        H978   1.084       .  S
C966        C967   1.401       .  A
C966        C969   1.442       .  S
C967        C968   1.403       .  A
C967        H979   1.083       .  S
C968        H980   1.083       .  S
C969        C970   1.208       .  T
C970        C971   1.442       .  S
C971        C972   1.402       .  A
C971        C976   1.398       .  A
C972        C973   1.404       .  A
C972        H981   1.083       .  S
C973        C974   1.408       .  A
C973        H982   1.083       .  S
C974        C975   1.408       .  A
C975        C976   1.395       .  A
C975        H983   1.083       .  S
C976        H984   1.084       .  S
C985        C986   1.408       .  A
C985        C990   1.407       .  A
C986        C987   1.396       .  A
C986        H999   1.082       .  S
C987        C988   1.399       .  A
C987       H1000   1.084       .  S
C988        C989   1.401       .  A
C988        C991   1.443       .  S
C989        C990   1.403       .  A
C989       H1001   1.083       .  S
C990       H1002   1.082       .  S
C991        C992   1.208       .  T
C992        C993   1.443       .  S
C993        C994   1.402       .  A
C993        C998   1.398       .  A
C994        C995   1.404       .  A
C994       H1003   1.083       .  S
C995        C996   1.408       .  A
C995       H1004   1.083       .  S
C996        C997   1.407       .  A
C997        C998   1.396       .  A
C997       H1005   1.082       .  S
C998       H1006   1.084       .  S
C1007      C1008   1.408       .  A
C1007      C1012   1.407       .  A
C1008      C1009   1.404       .  A
C1008      H1021   1.083       .  S
C1009      C1010   1.402       .  A
C1009      H1022   1.083       .  S
C1010      C1011   1.400       .  A
C1010      C1013   1.447       .  S
C1011      C1012   1.398       .  A
C1011      H1023   1.084       .  S
C1012      H1024   1.082       .  S
C1013      C1014   1.211       .  T
C1014      C1015   1.448       .  S
C1015      C1016   1.399       .  A
C1015      C1020   1.402       .  A
C1016      C1017   1.399       .  A
C1016      H1025   1.084       .  S
C1017      C1018   1.409       .  A
C1017      H1026   1.082       .  S
C1018      C1019   1.408       .  A
C1019      C1020   1.405       .  A
C1019      H1027   1.082       .  S
C1020      H1028   1.083       .  S
C1029      C1030   1.407       .  A
C1029      C1034   1.409       .  A
C1030      C1031   1.400       .  A
C1030      H1043   1.077       .  S
C1031      C1032   1.399       .  A
C1031      H1044   1.084       .  S
C1032      C1033   1.399       .  A
C1032      C1035   1.442       .  S
C1033      C1034   1.399       .  A
C1033      H1045   1.084       .  S
C1034      H1046   1.082       .  S
C1035      C1036   1.207       .  T
C1036      C1037   1.442       .  S
C1037      C1038   1.398       .  A
C1037      C1042   1.397       .  A
C1038      C1039   1.399       .  A
C1038      H1047   1.084       .  S
C1039      C1040   1.411       .  A
C1039      H1048   1.080       .  S
C1040      C1041   1.412       .  A
C1041      C1042   1.399       .  A
C1041      H1049   1.077       .  S
C1042      H1050   1.084       .  S
C1051      C1052   1.409       .  A
C1051      C1056   1.413       .  A
C1052      C1053   1.402       .  A
C1052      H1065   1.077       .  S
C1053      C1054   1.399       .  A
C1053      H1066   1.083       .  S
C1054      C1055   1.398       .  A
C1054      C1057   1.445       .  S
C1055      C1056   1.399       .  A
C1055      H1067   1.084       .  S
C1056      H1068   1.081       .  S
C1057      C1058   1.209       .  T
C1058      C1059   1.445       .  S
C1059      C1060   1.399       .  A
C1059      C1064   1.400       .  A
C1060      C1061   1.400       .  A
C1060      H1069   1.083       .  S
C1061      C1062   1.410       .  A
C1061      H1070   1.082       .  S
C1062      C1063   1.407       .  A
C1063      C1064   1.401       .  A
C1063      H1071   1.076       .  S
C1064      H1072   1.083       .  S
C1073      C1074   1.413       .  A
C1073      C1078   1.415   1_554  A
C1074      C1075   1.404       .  A
C1074      H1087   1.083       .  S
C1075      C1076   1.401       .  A
C1075      H1088   1.083       .  S
C1076      C1077   1.399   1_554  A
C1076      C1079   1.452       .  S
C1077      C1078   1.402       .  A
C1077      H1089   1.084       .  S
C1078      H1090   1.076       .  S
C1079      C1080   1.214       .  T
C1080      C1081   1.452       .  S
C1081      C1082   1.400   1_554  A
C1081      C1086   1.400       .  A
C1082      C1083   1.403       .  A
C1082      H1091   1.084       .  S
C1083      C1084   1.414   1_556  A
C1083      H1092   1.077       .  S
C1084      C1085   1.412       .  A
C1085      C1086   1.403       .  A
C1085      H1093   1.083       .  S
C1086      H1094   1.083       .  S
C1095      C1096   1.407       .  A
C1095      C1100   1.407       .  A
C1096      C1097   1.401       .  A
C1096      H1109   1.083       .  S
C1097      C1098   1.401   1_565  A
C1097      H1110   1.083       .  S
C1098      C1099   1.400       .  A
C1098      C1101   1.443       .  S
C1099      C1100   1.399   1_545  A
C1099      H1111   1.084       .  S
C1100      H1112   1.083   1_565  S
C1101      C1102   1.208       .  T
C1102      C1103   1.443       .  S
C1103      C1104   1.399       .  A
C1103      C1108   1.400       .  A
C1104      C1105   1.398       .  A
C1104      H1113   1.083       .  S
C1105      C1106   1.408       .  A
C1105      H1114   1.082       .  S
C1106      C1107   1.406       .  A
C1107      C1108   1.401       .  A
C1107      H1115   1.078       .  S
C1108      H1116   1.083       .  S
C1117      C1118   1.408       .  A
C1117      C1122   1.407       .  A
C1118      C1119   1.398   1_565  A
C1118      H1131   1.082   1_565  S
C1119      C1120   1.399       .  A
C1119      H1132   1.084       .  S
C1120      C1121   1.399   1_545  A
C1120      C1123   1.439       .  S
C1121      C1122   1.398       .  A
C1121      H1133   1.084       .  S
C1122      H1134   1.082       .  S
C1123      C1124   1.205       .  T
C1124      C1125   1.439       .  S
C1125      C1126   1.397       .  A
C1125      C1130   1.397       .  A
C1126      C1127   1.399       .  A
C1126      H1135   1.084       .  S
C1127      C1128   1.410       .  A
C1127      H1136   1.076       .  S
C1128      C1129   1.412       .  A
C1129      C1130   1.397       .  A
C1129      H1137   1.080       .  S
C1130      H1138   1.084       .  S
C1139      C1140   1.406       .  A
C1139      C1144   1.409       .  A
C1140      C1141   1.400       .  A
C1140      H1153   1.079       .  S
C1141      C1142   1.400       .  A
C1141      H1154   1.083       .  S
C1142      C1143   1.400       .  A
C1142      C1145   1.443       .  S
C1143      C1144   1.399       .  A
C1143      H1155   1.083       .  S
C1144      H1156   1.082       .  S
C1145      C1146   1.208       .  T
C1146      C1147   1.443       .  S
C1147      C1148   1.399       .  A
C1147      C1152   1.401       .  A
C1148      C1149   1.398       .  A
C1148      H1157   1.084       .  S
C1149      C1150   1.409       .  A
C1149      H1158   1.083       .  S
C1150      C1151   1.405       .  A
C1151      C1152   1.401       .  A
C1151      H1159   1.079       .  S
C1152      H1160   1.083       .  S
C1161      C1162   1.409       .  A
C1161      C1166   1.412       .  A
C1162      C1163   1.401       .  A
C1162      H1175   1.077       .  S
C1163      C1164   1.399       .  A
C1163      H1176   1.083       .  S
C1164      C1165   1.398       .  A
C1164      C1167   1.446       .  S
C1165      C1166   1.400       .  A
C1165      H1177   1.084       .  S
C1166      H1178   1.081       .  S
C1167      C1168   1.210       .  T
C1168      C1169   1.446       .  S
C1169      C1170   1.399       .  A
C1169      C1174   1.401       .  A
C1170      C1171   1.400       .  A
C1170      H1179   1.084       .  S
C1171      C1172   1.411       .  A
C1171      H1180   1.082       .  S
C1172      C1173   1.406       .  A
C1173      C1174   1.402       .  A
C1173      H1181   1.078       .  S
C1174      H1182   1.083       .  S
C1183      C1184   1.412       .  A
C1183      C1188   1.413   1_554  A
C1184      C1185   1.401       .  A
C1184      H1197   1.077       .  S
C1185      C1186   1.399       .  A
C1185      H1198   1.084       .  S
C1186      C1187   1.398   1_554  A
C1186      C1189   1.446   1_554  S
C1187      C1188   1.400       .  A
C1187      H1199   1.084       .  S
C1188      H1200   1.083       .  S
C1189      C1190   1.209       .  T
C1190      C1191   1.446       .  S
C1191      C1192   1.398       .  A
C1191      C1196   1.399   1_556  A
C1192      C1193   1.400       .  A
C1192      H1201   1.084       .  S
C1193      C1194   1.413   1_556  A
C1193      H1202   1.083       .  S
C1194      C1195   1.412       .  A
C1195      C1196   1.401       .  A
C1195      H1203   1.077       .  S
C1196      H1204   1.084       .  S
C1205      C1206   1.407       .  A
C1205      C1210   1.407   1_556  A
C1206      C1207   1.400       .  A
C1206      H1219   1.083       .  S
C1207      C1208   1.400       .  A
C1207      H1220   1.083       .  S
C1208      C1209   1.398   1_556  A
C1208      C1211   1.437       .  S
C1209      C1210   1.395       .  A
C1209      H1221   1.084       .  S
C1210      H1222   1.083       .  S
C1211      C1212   1.205       .  T
C1212      C1213   1.437       .  S
C1213      C1214   1.398   1_556  A
C1213      C1218   1.399       .  A
C1214      C1215   1.396       .  A
C1214      H1223   1.084       .  S
C1215      C1216   1.407   1_554  A
C1215      H1224   1.083       .  S
C1216      C1217   1.408       .  A
C1217      C1218   1.399       .  A
C1217      H1225   1.083       .  S
C1218      H1226   1.083       .  S
C1227      C1228   1.411       .  A
C1227      C1232   1.407       .  A
C1228      C1229   1.402       .  A
C1228      H1241   1.082       .  S
C1229      C1230   1.401       .  A
C1229      H1242   1.083       .  S
C1230      C1231   1.399       .  A
C1230      C1233   1.446       .  S
C1231      C1232   1.400       .  A
C1231      H1243   1.084       .  S
C1232      H1244   1.077       .  S
C1233      C1234   1.210       .  T
C1234      C1235   1.446       .  S
C1235      C1236   1.401       .  A
C1235      C1240   1.399       .  A
C1236      C1237   1.402       .  A
C1236      H1245   1.083       .  S
C1237      C1238   1.406       .  A
C1237      H1246   1.078       .  S
C1238      C1239   1.411       .  A
C1239      C1240   1.399       .  A
C1239      H1247   1.082       .  S
C1240      H1248   1.084       .  S
C1249      C1250   1.408       .  A
C1249      C1254   1.404       .  A
C1250      C1251   1.399       .  A
C1250      H1263   1.083       .  S
C1251      C1252   1.400       .  A
C1251      H1264   1.083       .  S
C1252      C1253   1.402       .  A
C1252      C1255   1.445       .  S
C1253      C1254   1.402       .  A
C1253      H1265   1.083       .  S
C1254      H1266   1.078       .  S
C1255      C1256   1.209       .  T
C1256      C1257   1.445       .  S
C1257      C1258   1.399       .  A
C1257      C1262   1.399       .  A
C1258      C1259   1.401       .  A
C1258      H1267   1.083       .  S
C1259      C1260   1.410       .  A
C1259      H1268   1.077       .  S
C1260      C1261   1.413       .  A
C1261      C1262   1.400       .  A
C1261      H1269   1.081       .  S
C1262      H1270   1.084       .  S
C1271      C1272   1.408       .  A
C1271      C1276   1.408       .  A
C1272      C1273   1.397       .  A
C1272      H1285   1.082       .  S
C1273      C1274   1.399   1_565  A
C1273      H1286   1.084   1_565  S
C1274      C1275   1.400   1_545  A
C1274      C1277   1.441       .  S
C1275      C1276   1.401       .  A
C1275      H1287   1.083   1_565  S
C1276      H1288   1.082       .  S
C1277      C1278   1.207       .  T
C1278      C1279   1.441       .  S
C1279      C1280   1.401       .  A
C1279      C1284   1.398       .  A
C1280      C1281   1.402       .  A
C1280      H1289   1.083       .  S
C1281      C1282   1.408       .  A
C1281      H1290   1.082       .  S
C1282      C1283   1.408       .  A
C1283      C1284   1.395       .  A
C1283      H1291   1.082       .  S
C1284      H1292   1.084       .  S
C1293      C1294   1.408       .  A
C1293      C1298   1.408       .  A
C1294      C1295   1.401       .  A
C1294      H1307   1.082       .  S
C1295      C1296   1.400       .  A
C1295      H1308   1.084       .  S
C1296      C1297   1.400       .  A
C1296      C1299   1.445       .  S
C1297      C1298   1.400       .  A
C1297      H1309   1.083       .  S
C1298      H1310   1.082       .  S
C1299      C1300   1.209       .  T
C1300      C1301   1.445       .  S
C1301      C1302   1.400       .  A
C1301      C1306   1.400   1_545  A
C1302      C1303   1.400   1_545  A
C1302      H1311   1.084       .  S
C1303      C1304   1.409       .  A
C1303      H1312   1.083       .  S
C1304      C1305   1.405       .  A
C1305      C1306   1.401       .  A
C1305      H1313   1.079       .  S
C1306      H1314   1.083       .  S
C1315      C1316   1.413       .  A
C1315      C1320   1.413   1_554  A
C1316      C1317   1.402       .  A
C1316      H1329   1.077       .  S
C1317      C1318   1.400       .  A
C1317      H1330   1.084       .  S
C1318      C1319   1.399   1_554  A
C1318      C1321   1.449       .  S
C1319      C1320   1.401       .  A
C1319      H1331   1.083       .  S
C1320      H1332   1.083       .  S
C1321      C1322   1.212       .  T
C1322      C1323   1.449       .  S
C1323      C1324   1.399   1_554  A
C1323      C1328   1.400       .  A
C1324      C1325   1.401       .  A
C1324      H1333   1.083       .  S
C1325      C1326   1.412   1_556  A
C1325      H1334   1.083       .  S
C1326      C1327   1.414       .  A
C1327      C1328   1.403       .  A
C1327      H1335   1.077       .  S
C1328      H1336   1.084       .  S
C1337      C1338   1.407   1_556  A
C1337      C1342   1.407       .  A
C1338      C1339   1.395       .  A
C1338      H1351   1.083       .  S
C1339      C1340   1.398   1_554  A
C1339      H1352   1.084       .  S
C1340      C1341   1.399       .  A
C1340      C1343   1.436       .  S
C1341      C1342   1.399       .  A
C1341      H1353   1.083       .  S
C1342      H1354   1.083       .  S
C1343      C1344   1.204       .  T
C1344      C1345   1.436       .  S
C1345      C1346   1.400       .  A
C1345      C1350   1.398   1_556  A
C1346      C1347   1.399       .  A
C1346      H1355   1.083       .  S
C1347      C1348   1.407       .  A
C1347      H1356   1.083       .  S
C1348      C1349   1.407   1_556  A
C1349      C1350   1.395       .  A
C1349      H1357   1.083       .  S
C1350      H1358   1.084       .  S
C1359      C1360   1.412       .  A
C1359      C1364   1.411       .  A
C1360      C1361   1.401       .  A
C1360      H1373   1.081       .  S
C1361      C1362   1.399       .  A
C1361      H1374   1.084       .  S
C1362      C1363   1.399       .  A
C1362      C1365   1.448       .  S
C1363      C1364   1.402       .  A
C1363      H1375   1.084       .  S
C1364      H1376   1.078       .  S
C1365      C1366   1.211       .  T
C1366      C1367   1.447       .  S
C1367      C1368   1.401       .  A
C1367      C1372   1.399       .  A
C1368      C1369   1.403       .  A
C1368      H1377   1.083       .  S
C1369      C1370   1.408       .  A
C1369      H1378   1.078       .  S
C1370      C1371   1.412       .  A
C1371      C1372   1.400       .  A
C1371      H1379   1.082       .  S
C1372      H1380   1.084       .  S
C1381      C1382   1.406       .  A
C1381      C1386   1.406       .  A
C1382      C1383   1.402       .  A
C1382      H1395   1.083       .  S
C1383      C1384   1.401       .  A
C1383      H1396   1.083       .  S
C1384      C1385   1.401       .  A
C1384      C1387   1.447       .  S
C1385      C1386   1.401       .  A
C1385      H1397   1.083       .  S
C1386      H1398   1.083       .  S
C1387      C1388   1.210       .  T
C1388      C1389   1.447       .  S
C1389      C1390   1.401       .  A
C1389      C1394   1.402       .  A
C1390      C1391   1.400       .  A
C1390      H1399   1.083       .  S
C1391      C1392   1.407       .  A
C1391      H1400   1.083       .  S
C1392      C1393   1.405       .  A
C1393      C1394   1.402       .  A
C1393      H1401   1.080       .  S
C1394      H1402   1.083       .  S
C1403      C1404   1.405       .  A
C1403      C1408   1.410       .  A
C1404      C1405   1.401       .  A
C1404      H1417   1.076       .  S
C1405      C1406   1.400       .  A
C1405      H1418   1.083       .  S
C1406      C1407   1.398       .  A
C1406      C1409   1.443       .  S
C1407      C1408   1.398       .  A
C1407      H1419   1.084       .  S
C1408      H1420   1.082       .  S
C1409      C1410   1.208       .  T
C1410      C1411   1.442       .  S
C1411      C1412   1.401       .  A
C1411      C1416   1.398       .  A
C1412      C1413   1.401       .  A
C1412      H1421   1.083       .  S
C1413      C1414   1.408       .  A
C1413      H1422   1.083       .  S
C1414      C1415   1.405       .  A
C1415      C1416   1.398       .  A
C1415      H1423   1.076       .  S
C1416      H1424   1.084       .  S
C1425      C1426   1.411       .  A
C1425      C1430   1.409       .  A
C1426      C1427   1.399       .  A
C1426      H1439   1.081       .  S
C1427      C1428   1.399       .  A
C1427      H1440   1.084       .  S
C1428      C1429   1.397       .  A
C1428      C1431   1.441       .  S
C1429      C1430   1.399       .  A
C1429      H1441   1.084       .  S
C1430      H1442   1.075       .  S
C1431      C1432   1.207       .  T
C1432      C1433   1.441       .  S
C1433      C1434   1.401       .  A
C1433      C1438   1.399       .  A
C1434      C1435   1.401       .  A
C1434      H1443   1.083       .  S
C1435      C1436   1.406       .  A
C1435      H1444   1.079       .  S
C1436      C1437   1.406       .  A
C1437      C1438   1.397       .  A
C1437      H1445   1.083       .  S
C1438      H1446   1.083       .  S
C1447      C1448   1.413   1_554  A
C1447      C1452   1.413       .  A
C1448      C1449   1.401       .  A
C1448      H1461   1.083       .  S
C1449      C1450   1.399   1_556  A
C1449      H1462   1.083       .  S
C1450      C1451   1.401       .  A
C1450      C1453   1.451       .  S
C1451      C1452   1.404       .  A
C1451      H1463   1.084       .  S
C1452      H1464   1.077       .  S
C1453      C1454   1.213       .  T
C1454      C1455   1.451       .  S
C1455      C1456   1.400       .  A
C1455      C1460   1.400   1_554  A
C1456      C1457   1.403       .  A
C1456      H1465   1.084       .  S
C1457      C1458   1.413       .  A
C1457      H1466   1.077       .  S
C1458      C1459   1.412   1_554  A
C1459      C1460   1.402       .  A
C1459      H1467   1.083       .  S
C1460      H1468   1.083       .  S
C1469      C1470   1.407       .  A
C1469      C1474   1.407   1_556  A
C1470      C1471   1.400       .  A
C1470      H1483   1.083       .  S
C1471      C1472   1.400       .  A
C1471      H1484   1.083       .  S
C1472      C1473   1.397   1_556  A
C1472      C1475   1.436       .  S
C1473      C1474   1.394       .  A
C1473      H1485   1.084       .  S
C1474      H1486   1.083       .  S
C1475      C1476   1.204       .  T
C1476      C1477   1.436       .  S
C1477      C1478   1.399   1_556  A
C1477      C1482   1.399       .  A
C1478      C1479   1.396       .  A
C1478      H1487   1.084       .  S
C1479      C1480   1.407   1_554  A
C1479      H1488   1.083       .  S
C1480      C1481   1.407       .  A
C1481      C1482   1.399       .  A
C1481      H1489   1.083       .  S
C1482      H1490   1.083       .  S
C1491      C1492   1.407   1_556  A
C1491      C1496   1.407       .  A
C1492      C1493   1.396       .  A
C1492      H1505   1.083       .  S
C1493      C1494   1.399   1_554  A
C1493      H1506   1.084       .  S
C1494      C1495   1.399       .  A
C1494      C1497   1.437       .  S
C1495      C1496   1.399       .  A
C1495      H1507   1.083       .  S
C1496      H1508   1.083       .  S
C1497      C1498   1.205       .  T
C1498      C1499   1.437       .  S
C1499      C1500   1.400       .  A
C1499      C1504   1.398   1_556  A
C1500      C1501   1.400       .  A
C1500      H1509   1.083       .  S
C1501      C1502   1.408       .  A
C1501      H1510   1.083       .  S
C1502      C1503   1.407   1_556  A
C1503      C1504   1.395       .  A
C1503      H1511   1.083       .  S
C1504      H1512   1.084       .  S
