geometry optimzed in LAMMPS
_audit_creation_date              2020-12-01 
_audit_creation_method            'lammps2cif' 
_symmetry_space_group_name_H-M    'P1' 
_symmetry_Int_Tables_number       1 
_symmetry_cell_setting            triclinic 
loop_ 
_symmetry_equiv_pos_as_xyz 
  x,y,z 
_cell_length_a                    44.48359642 
_cell_length_b                    44.65406682647182 
_cell_length_c                    45.610672087556814 
_cell_angle_alpha                 90.23997238108434 
_cell_angle_beta                  92.44274877316097 
_cell_angle_gamma                 120.14552232090053 
loop_ 
_atom_site_label 
_atom_site_type_symbol 
_atom_site_fract_x 
_atom_site_fract_y 
_atom_site_fract_z 
_atom_site_charge 
O1          O  0.38288513  0.10114143  0.13010959    -0.85600
O2          O  0.42584925  0.15332854  0.09767708    -0.82600
C3          C  0.44416754  0.17901579  0.11534609     0.97900
O4          O  0.47001819  0.18171250  0.12973880    -0.82700
O5          O  0.49554016  0.15798343  0.17159062    -0.85300
C6          C  0.47183322  0.14701321  0.19017545     1.02400
O7          O  0.44282487  0.12040017  0.18421035    -0.78100
O8          O  0.38776465  0.06308136  0.15586548    -0.78300
C9          C  0.37051502  0.07728370  0.14798533     1.02300
O10         O  0.39803535  0.05110913  0.10056864    -0.85600
O11         O  0.44361532  0.10654694  0.06775806    -0.82700
C12         C  0.47210807  0.13270179  0.06194532     0.97900
O13         O  0.49122645  0.15433583  0.08236641    -0.82700
O14         O  0.01378125  0.12484006  0.12577283    -0.85300
C15         C  0.01355288  0.10772073  0.14774025     1.02400
O16         O  0.48995208  0.09848833  0.16584609    -0.78100
O17         O  0.43785193  0.05044712  0.13050972    -0.78300
C18         C  0.41339906  0.03554640  0.11142346     1.02300
Cr19       Cr  0.41508312  0.10362670  0.10075244     1.93700
Cr20       Cr  0.48982330  0.15185110  0.12705475     1.93200
Cr21       Cr  0.44021982  0.08538050  0.15699517     1.39100
O22         O  0.44856090  0.11365676  0.12769187    -1.23300
O23         O  0.37684929  0.26789590  0.11330526    -0.85600
O24         O  0.32432061  0.25962697  0.07862582    -0.82600
C25         C  0.30163105  0.24938691  0.09783455     0.97900
O26         O  0.30202209  0.27046732  0.11654197    -0.82700
O27         O  0.32816138  0.32889118  0.15361249    -0.85300
C28         C  0.34414904  0.32288612  0.17440634     1.02400
O29         O  0.36911561  0.31853521  0.16899226    -0.78100
O30         O  0.41802380  0.31027402  0.14027811    -0.78300
C31         C  0.40201765  0.27855170  0.13147565     1.02300
O32         O  0.42775632  0.32911243  0.08432138    -0.85600
O33         O  0.37029006  0.32488479  0.05266274    -0.82700
C34         C  0.34015129  0.31940963  0.04606065     0.97900
O35         O  0.31849892  0.31256716  0.06581708    -0.82700
O36         O  0.34996744  0.36993156  0.10244314    -0.85300
C37         C  0.37353223  0.39243156  0.11948430     1.02400
O38         O  0.38874186  0.38383946  0.13931335    -0.78100
O39         O  0.43247009  0.37320862  0.10901953    -0.78300
C40         C  0.44563859  0.36064691  0.09301435     1.02300
Cr41       Cr  0.37459713  0.29738869  0.08379437     1.93700
Cr42       Cr  0.32722792  0.32042703  0.10976195     1.93200
Cr43       Cr  0.39980394  0.34473923  0.13782484     1.39100
O44         O  0.36727584  0.32109104  0.11042884    -1.23300
O45         O  0.21603817  0.04974713  0.17538707    -0.85600
O46         O  0.21278369  0.09532691  0.13828645    -0.82600
C47         C  0.20276430  0.10797390  0.11830388     0.97900
O48         O  0.17155257  0.09182332  0.10835586    -0.82700
O49         O  0.17109443  0.03697173  0.08011021    -0.85300
C50         C  0.16701986  0.00745301  0.07478395     1.02400
O51         O  0.15733728  0.48511079  0.09464536    -0.78100
O52         O  0.20731576  0.01223008  0.14012035    -0.78300
C53         C  0.22722935  0.03475403  0.15927031     1.02300
O54         O  0.14919234  0.03170117  0.19524224    -0.85600
O55         O  0.14727931  0.08202044  0.16154964    -0.82700
C56         C  0.11645754  0.06772166  0.15021579     0.97900
O57         O  0.10601156  0.04365101  0.13121802    -0.82700
O58         O  0.10174985  0.49150260  0.09680630    -0.85300
C59         C  0.08753094  0.46540333  0.11277168     1.02400
O60         O  0.10389719  0.46364870  0.13553403    -0.78100
O61         O  0.15482019  0.48731861  0.18253814    -0.78300
C62         C  0.14935699  0.50441073  0.20181580     1.02300
Cr63       Cr  0.17954586  0.06230260  0.16548060     1.93700
Cr64       Cr  0.13909262  0.04029450  0.10645874     1.93200
Cr65       Cr  0.15594598  0.48998381  0.13835470     1.39100
O66         O  0.15791609  0.03056135  0.13704884    -1.23300
O67         O  0.26161435  0.31872288  0.32524799    -0.85600
O68         O  0.26685325  0.36764317  0.36422133    -0.82600
C69         C  0.27790314  0.39111914  0.38375748     0.97900
O70         O  0.30938214  0.40576202  0.39303404    -0.82700
O71         O  0.30929084  0.35047053  0.41927234    -0.85300
C72         C  0.31297170  0.32477325  0.42400896     1.02400
O73         O  0.32211459  0.31182898  0.40380154    -0.78100
O74         O  0.27169518  0.28925717  0.35863866    -0.78300
C75         C  0.25122289  0.29159775  0.34002299     1.02300
O76         O  0.32811409  0.36793379  0.30461804    -0.85600
O77         O  0.33185642  0.42003548  0.34008656    -0.82700
C78         C  0.36299916  0.43654841  0.35091835     0.97900
O79         O  0.37408352  0.42238163  0.36863581    -0.82700
O80         O  0.37857913  0.37373005  0.40195458    -0.85300
C81         C  0.39220945  0.36149884  0.38544485     1.02400
O82         O  0.37529405  0.34394615  0.36252970    -0.78100
O83         O  0.32397440  0.31818396  0.31591677    -0.78300
C84         C  0.32883580  0.34109480  0.29729536     1.02300
Cr85       Cr  0.29892014  0.36787547  0.33557258     1.93700
Cr86       Cr  0.34130646  0.38585203  0.39339408     1.93200
Cr87       Cr  0.32314471  0.31866922  0.36017422     1.39100
O88         O  0.32145507  0.35742719  0.36267544    -1.23300
O89         O  0.10686577  0.38158647  0.38555724    -0.85600
O90         O  0.15869981  0.42627407  0.42078162    -0.82600
C91         C  0.18150192  0.43824152  0.40165073     0.97900
O92         O  0.18126624  0.45874083  0.38275977    -0.82700
O93         O  0.15457548  0.49050806  0.34520467    -0.85300
C94         C  0.13848359  0.46868037  0.32421664     1.02400
O95         O  0.11397816  0.43907167  0.32953937    -0.78100
O96         O  0.06545054  0.38147977  0.35816461    -0.78300
C97         C  0.08165148  0.36625907  0.36749738     1.02300
O98         O  0.05487830  0.39062047  0.41410789    -0.85600
O99         O  0.11212076  0.44495539  0.44638090    -0.82700
C100        C  0.14200576  0.47037947  0.45278512     0.97900
O101        O  0.16373356  0.48486326  0.43304485    -0.82700
O102        O  0.13201610  0.00961972  0.39599276    -0.85300
C103        C  0.10809967  0.00788352  0.37906342     1.02400
O104        O  0.09298446  0.48378255  0.35933947    -0.78100
O105        O  0.04909381  0.42893410  0.38903106    -0.78300
C106        C  0.03618357  0.40307885  0.40478430     1.02300
Cr107      Cr  0.10827861  0.41306380  0.41511220     1.93700
Cr108      Cr  0.15533107  0.48323067  0.38904907     1.93200
Cr109      Cr  0.08278688  0.43398433  0.36066432     1.39100
O110        O  0.11534203  0.44365894  0.38835022    -1.23300
O111        O  0.09626018  0.20398887  0.36703832    -0.85600
O112        O  0.05631246  0.21611909  0.40126282    -0.82600
C113        C  0.03818112  0.22387974  0.38394692     0.97900
O114        O  0.01082125  0.20074883  0.37098464    -0.82700
O115        O  0.48118023  0.15002307  0.33019078    -0.85300
C116        C  0.00393785  0.16197222  0.31083236     1.02400
O117        O  0.03268201  0.16333108  0.31545274    -0.78100
O118        O  0.08833946  0.15964652  0.34122690    -0.78300
C119        C  0.10705359  0.19119176  0.34874199     1.02300
O120        O  0.08008734  0.13910479  0.39726212    -0.85600
O121        O  0.03827409  0.15274035  0.43234554    -0.82700
C122        C  0.51023897  0.15103026  0.43894018     0.97900
O123        O  0.49053459  0.15330543  0.41907910    -0.82700
O124        O  0.46373609  0.09958177  0.37636605    -0.85300
C125        C  0.46252663  0.08172388  0.35435419     1.02400
O126        O  0.48520096  0.09525730  0.33536869    -0.78100
O127        O  0.03852113  0.09842335  0.36834456    -0.78300
C128        C  0.06362400  0.10790789  0.38674656     1.02300
Cr129      Cr  0.06507170  0.17600939  0.39778845     1.93700
Cr130      Cr  0.48938936  0.15080121  0.37441075     1.93200
Cr131      Cr  0.03571858  0.13095645  0.34226240     1.39100
O132        O  0.02985102  0.15231461  0.37216550    -1.23300
C133        C  0.04939950  0.26030354  0.37708025    -0.05700
C134        C  0.02478917  0.26930909  0.36632524    -0.33100
C135        C  0.03504620  0.30353274  0.35889606     0.36100
C136        C  0.07033200  0.32925141  0.36207668    -0.06100
C137        C  0.09503562  0.31910173  0.36926681    -0.33000
C138        C  0.08489308  0.28538130  0.37741022     0.36000
H139        H  0.99735803  0.24997828  0.36453301     0.16400
O140        O  0.01020840  0.31180634  0.35060695    -0.60500
H141        H  0.12254833  0.33821324  0.37107500     0.16400
O142        O  0.10985822  0.27757335  0.38673357    -0.60600
H143        H  0.12378271  0.28044901  0.36950681     0.43400
H144        H  0.51059469  0.31297745  0.32890182     0.43300
C145        C  0.09736650  0.03396360  0.38309998    -0.05700
C146        C  0.06188204  0.02296577  0.38292055    -0.33100
C147        C  0.05069429  0.04662539  0.38786592     0.36100
C148        C  0.07514231  0.08241251  0.39202388    -0.06100
C149        C  0.11073286  0.09321005  0.39383304    -0.33000
C150        C  0.12191441  0.06920086  0.38959898     0.36000
H151        H  0.04267731  0.49581165  0.37912220     0.16400
O152        O  0.01558558  0.03469786  0.38706202    -0.60500
H153        H  0.12992914  0.12049600  0.39658669     0.16400
O154        O  0.15691592  0.08067843  0.39062762    -0.60600
H155        H  0.16406841  0.08701894  0.37024215     0.43400
H156        H  0.00875825  0.02877545  0.40757127     0.43300
C157        C  0.38586780  0.47362259  0.34593694    -0.05700
C158        C  0.37611383  0.49735122  0.35538448    -0.33100
C159        C  0.40062814  0.03286864  0.35787644     0.36100
C160        C  0.43518470  0.04498265  0.35033613    -0.06100
C161        C  0.44417895  0.02137767  0.33907454    -0.33000
C162        C  0.42001376  0.48588381  0.33742017     0.36000
H163        H  0.35004012  0.48813549  0.36248778     0.16400
O164        O  0.39075157  0.05534647  0.36824109    -0.60500
H165        H  0.47055231  0.03027808  0.33289147     0.16400
O166        O  0.43010728  0.46320405  0.32795621    -0.60600
H167        H  0.44255859  0.46012751  0.34517003     0.43400
H168        H  0.38355776  0.06341964  0.35051375     0.43300
C169        C  0.14270310  0.21303223  0.33872136    -0.05700
C170        C  0.16815376  0.20407827  0.34564754    -0.33100
C171        C  0.20373830  0.22884487  0.34469608     0.36100
C172        C  0.21428218  0.26304404  0.33627317    -0.06100
C173        C  0.18853740  0.27072868  0.32655441    -0.33000
C174        C  0.15308904  0.24609014  0.32782477     0.36000
H175        H  0.16055994  0.17865536  0.35392671     0.16400
O176        O  0.22795373  0.21953199  0.35261179    -0.60500
H177        H  0.19580174  0.29656204  0.31957691     0.16400
O178        O  0.12870954  0.25512307  0.31978193    -0.60600
H179        H  0.12424728  0.25006860  0.29835760     0.43400
H180        H  0.22913146  0.22003455  0.37437470     0.43300
C181        C  0.25483734  0.40360837  0.39325029    -0.05700
C182        C  0.26611147  0.43906847  0.39201255    -0.33100
C183        C  0.24263290  0.45094017  0.39523649     0.36100
C184        C  0.20777731  0.42738250  0.40111989    -0.06100
C185        C  0.19722290  0.39227405  0.40453319    -0.33000
C186        C  0.22025948  0.38017977  0.39991719     0.36000
H187        H  0.29264070  0.45733272  0.38679270     0.16400
O188        O  0.25396374  0.48555682  0.39265854    -0.60500
H189        H  0.17054302  0.37386941  0.40925203     0.16400
O190        O  0.20878455  0.34544772  0.40183422    -0.60600
H191        H  0.19631996  0.33493586  0.38268751     0.43400
H192        H  0.25349451  0.48919461  0.37123930     0.43300
C193        C  0.99816717  0.38616494  0.40809247    -0.05700
C194        C  0.47593812  0.35650037  0.39062486    -0.33100
C195        C  0.44126706  0.34758901  0.38328633     0.36100
C196        C  0.42798694  0.36814279  0.39398426    -0.06100
C197        C  0.44959767  0.39614960  0.41347075    -0.33000
C198        C  0.48431282  0.40538802  0.42018168     0.36000
H199        H  0.98627429  0.34181018  0.38066634     0.16400
O200        O  0.42089026  0.31910629  0.36532165    -0.60500
H201        H  0.44017177  0.41225707  0.42238416     0.16400
O202        O  0.50536841  0.43503696  0.43666438    -0.60600
H203        H  0.50660571  0.42706016  0.45669230     0.43400
H204        H  0.42685534  0.32727919  0.34507515     0.43300
C205        C  0.14671481  0.49459557  0.23297470    -0.05700
C206        C  0.15946759  0.02083453  0.25501033    -0.33100
C207        C  0.15914047  0.51309246  0.28473931     0.36100
C208        C  0.14511428  0.47841641  0.29309311    -0.06100
C209        C  0.13279453  0.45221077  0.27098742    -0.33000
C210        C  0.13389722  0.46010252  0.24119520     0.36000
H211        H  0.17007778  0.04766644  0.24917941     0.16400
O212        O  0.17078360  0.03948801  0.30539693    -0.60500
H213        H  0.12159514  0.42531897  0.27681587     0.16400
O214        O  0.12081379  0.43372604  0.22039796    -0.60600
H215        H  0.14018313  0.42934533  0.21703152     0.43400
H216        H  0.19603984  0.04807765  0.30857292     0.43300
C217        C  0.15260548  0.48033365  0.48382154    -0.05700
C218        C  0.13928587  0.45430774  0.50459248    -0.33100
C219        C  0.14698452  0.46242613  0.03446058     0.36100
C220        C  0.16755870  0.49734797  0.04409987    -0.06100
C221        C  0.18295273  0.02316154  0.02317117    -0.33000
C222        C  0.17583283  0.01479046  0.49313576     0.36000
H223        H  0.12227423  0.42745739  0.49766333     0.16400
O224        O  0.13177992  0.43623009  0.05395581    -0.60500
H225        H  0.19912359  0.05011586  0.03011613     0.16400
O226        O  0.19036821  0.04062429  0.47324347    -0.60600
H227        H  0.17298916  0.04803729  0.46940068     0.43400
H228        H  0.14888006  0.42847138  0.05780031     0.43300
C229        C  0.32931376  0.31686265  0.01491032    -0.05700
C230        C  0.34561187  0.30678396  0.99457589    -0.33100
C231        C  0.33755977  0.30541893  0.46463927     0.36100
C232        C  0.31310278  0.31471859  0.45454208    -0.06100
C233        C  0.29498957  0.32245337  0.47496982    -0.33000
C234        C  0.30290901  0.32350549  0.00506082     0.36000
H235        H  0.36540459  0.30069925  0.00183928     0.16400
O236        O  0.35644580  0.29855339  0.44547584    -0.60500
H237        H  0.27618460  0.32978778  0.46750851     0.16400
O238        O  0.28601309  0.33276065  0.02442595    -0.60600
H239        H  0.30046211  0.35832081  0.02682114     0.43400
H240        H  0.34369899  0.27298319  0.44275277     0.43300
C241        C  0.33238710  0.33539222  0.26598157    -0.05700
C242        C  0.31960133  0.34928631  0.24450845    -0.33100
C243        C  0.32155875  0.34395774  0.21458335     0.36100
C244        C  0.33665554  0.32449287  0.20552416    -0.06100
C245        C  0.34902844  0.31020526  0.22704702    -0.33000
C246        C  0.34676741  0.31531120  0.25700853     0.36000
H247        H  0.30791283  0.36438908  0.25092911     0.16400
O248        O  0.30959878  0.35884100  0.19450266    -0.60500
H249        H  0.36119783  0.29554874  0.22065600     0.16400
O250        O  0.36033385  0.30210540  0.27727801    -0.60600
H251        H  0.34176169  0.27770152  0.27948117     0.43400
H252        H  0.32988818  0.38202251  0.19118050     0.43300
C253        C  0.27490539  0.21263774  0.09870296    -0.05700
C254        C  0.28460349  0.18734289  0.09608245    -0.33100
C255        C  0.26098751  0.15271602  0.10170276     0.36100
C256        C  0.22677837  0.14293863  0.10859111    -0.06100
C257        C  0.21637651  0.16777267  0.10886836    -0.33000
C258        C  0.24042040  0.20262663  0.10477416     0.36000
H259        H  0.31101831  0.19472945  0.09118790     0.16400
O260        O  0.27183572  0.12888153  0.10128398    -0.60500
H261        H  0.19007866  0.16047000  0.11388790     0.16400
O262        O  0.23002851  0.22672815  0.10674004    -0.60600
H263        H  0.23052423  0.23150089  0.12807530     0.43400
H264        H  0.26296435  0.11638579  0.08202338     0.43300
C265        C  0.05204796  0.43683085  0.10350934    -0.05700
C266        C  0.04124265  0.40244557  0.11068523    -0.33100
C267        C  0.00730659  0.37560901  0.10287849     0.36100
C268        C  0.48315931  0.38301425  0.08866545    -0.06100
C269        C  0.49465726  0.41694692  0.07981297    -0.33000
C270        C  0.02877993  0.44358238  0.08664960     0.36000
H271        H  0.05890485  0.39643035  0.12285706     0.16400
O272        O  0.49704354  0.34281963  0.11182778    -0.62900
H273        H  0.47629312  0.42335874  0.06945878     0.16400
O274        O  0.03807799  0.47666197  0.07888062    -0.60600
H275        H  0.04469136  0.47826969  0.05820752     0.43400
H276        H  0.00059843  0.33110925  0.09491811     0.43300
C277        C  0.49566370  0.16956356  0.28112140    -0.05700
C278        C  0.46084392  0.15397100  0.27075707    -0.33100
C279        C  0.45241099  0.14984326  0.24058442     0.36100
C280        C  0.47918957  0.16159468  0.22047942    -0.06100
C281        C  0.01384212  0.18217383  0.23100238    -0.33000
C282        C  0.02219848  0.18644708  0.26112881     0.36000
H283        H  0.44003158  0.14194769  0.28580237     0.16400
O284        O  0.41795774  0.13236383  0.23104713    -0.60500
H285        H  0.03478180  0.19240342  0.21600403     0.16400
O286        O  0.05661017  0.20440926  0.27060624    -0.60600
H287        H  0.06098013  0.22759619  0.27692453     0.43400
H288        H  0.40950009  0.10762350  0.23499460     0.43300
C289        C  0.48213347  0.13808367  0.03050415    -0.05700
C290        C  0.01722393  0.15662564  0.02337008    -0.33100
C291        C  0.02665574  0.16070273  0.49386177     0.36100
C292        C  0.50084736  0.14693700  0.47051427    -0.06100
C293        C  0.46580591  0.12936242  0.47766894    -0.33000
C294        C  0.45639077  0.12470797  0.00708733     0.36000
H295        H  0.03752162  0.16756825  0.04073012     0.16400
O296        O  0.06126719  0.17934110  0.48811575    -0.60500
H297        H  0.44546618  0.11872842  0.46033141     0.16400
O298        O  0.42168387  0.10720565  0.01261803    -0.60600
H299        H  0.41485467  0.12519275  0.01323506     0.43400
H300        H  0.06987558  0.16278770  0.49024823     0.43300
C301        C  0.43430070  0.20533742  0.12151414    -0.05700
C302        C  0.39924845  0.19428066  0.12513543    -0.33100
C303        C  0.38908693  0.21772227  0.13388729     0.36100
C304        C  0.41384716  0.25346550  0.13750755    -0.06100
C305        C  0.44919667  0.26396882  0.13677319    -0.33000
C306        C  0.45958431  0.24016674  0.12894566     0.36000
H307        H  0.37962760  0.16722646  0.12156219     0.16400
O308        O  0.35435843  0.20584961  0.13680362    -0.60500
H309        H  0.46864237  0.29087260  0.14053530     0.16400
O310        O  0.49437579  0.25161724  0.12697365    -0.60600
H311        H  0.50343466  0.25297056  0.14747866     0.43400
H312        H  0.35038126  0.20002326  0.15775821     0.43300
C313        C  0.38336366  0.42900901  0.11547753    -0.05700
C314        C  0.35757489  0.43797782  0.10939479    -0.33100
C315        C  0.36666849  0.47261305  0.10478960     0.36100
C316        C  0.40197753  0.49861422  0.10553722    -0.06100
C317        C  0.42748883  0.48885540  0.10904085    -0.33000
C318        C  0.41851829  0.45474612  0.11475667     0.36000
H319        H  0.33029718  0.41824583  0.10923705     0.16400
O320        O  0.34100688  0.48101349  0.10195275    -0.60500
H321        H  0.45483534  0.00836377  0.10920200     0.16400
O322        O  0.44436550  0.44675166  0.11906710    -0.60600
H323        H  0.45153308  0.45172430  0.14023081     0.43400
H324        H  0.33383900  0.47754869  0.08075271     0.43300
C325        C  0.26434329  0.04482804  0.16212630    -0.05700
C326        C  0.27441701  0.01987510  0.15863133    -0.33100
C327        C  0.30966167  0.02988861  0.15703227     0.36100
C328        C  0.33509788  0.06531631  0.15760740    -0.06100
C329        C  0.32513756  0.09005046  0.16271692    -0.33000
C330        C  0.29019636  0.08004344  0.16551231     0.36000
H331        H  0.25485299  0.49266609  0.15627003     0.16400
O332        O  0.31855179  0.00507112  0.15222436    -0.60500
H333        H  0.34441609  0.11742664  0.16325164     0.16400
O334        O  0.28137272  0.10518553  0.16869406    -0.60600
H335        H  0.28353312  0.11018539  0.19013509     0.43400
H336        H  0.32345720  0.49900395  0.17204738     0.43300
C337        C  0.04108891  0.09901706  0.15277143    -0.05700
C338        C  0.07547433  0.12325775  0.14661372    -0.33100
C339        C  0.10151978  0.11446601  0.14897070     0.36100
C340        C  0.09297482  0.08071099  0.15654060    -0.06100
C341        C  0.05901391  0.05702867  0.16408044    -0.33000
C342        C  0.03314855  0.06610786  0.16262453     0.36000
H343        H  0.08199172  0.14881368  0.13937037     0.16400
O344        O  0.13445265  0.13796024  0.14121154    -0.60500
H345        H  0.05215460  0.03086700  0.16971657     0.16400
O346        O  0.99985692  0.04212300  0.16939909    -0.60600
H347        H  0.99103076  0.02417050  0.15344100     0.43400
H348        H  0.14660550  0.15151381  0.15950647     0.43300
O349        O  0.38288460  0.10114146  0.63010907    -0.85600
O350        O  0.42584898  0.15332862  0.59767673    -0.82600
C351        C  0.44416719  0.17901581  0.61534578     0.97900
O352        O  0.47001769  0.18171242  0.62973869    -0.82700
O353        O  0.49553940  0.15798303  0.67159052    -0.85300
C354        C  0.47183249  0.14701266  0.69017537     1.02400
O355        O  0.44282415  0.12039965  0.68421023    -0.78100
O356        O  0.38776402  0.06308129  0.65586496    -0.78300
C357        C  0.37051450  0.07728378  0.64798483     1.02300
O358        O  0.39803468  0.05110908  0.60056819    -0.85600
O359        O  0.44361502  0.10654701  0.56775777    -0.82700
C360        C  0.47210785  0.13270184  0.56194520     0.97900
O361        O  0.49122616  0.15433578  0.58236638    -0.82700
O362        O  0.01378063  0.12483986  0.62577261    -0.85300
C363        C  0.01355211  0.10772032  0.64773991     1.02400
O364        O  0.48995126  0.09848782  0.66584592    -0.78100
O365        O  0.43785131  0.05044707  0.63050915    -0.78300
C366        C  0.41339837  0.03554632  0.61142296     1.02300
Cr367      Cr  0.41508268  0.10362672  0.60075206     1.93700
Cr368      Cr  0.48982273  0.15185090  0.62705468     1.93200
Cr369      Cr  0.44021911  0.08538019  0.65699483     1.39100
O370        O  0.44856030  0.11365664  0.62769165    -1.23300
O371        O  0.37684860  0.26789580  0.61330563    -0.85600
O372        O  0.32432016  0.25962700  0.57862574    -0.82600
C373        C  0.30163038  0.24938691  0.59783426     0.97900
O374        O  0.30202130  0.27046724  0.61654169    -0.82700
O375        O  0.32816046  0.32889083  0.65361248    -0.85300
C376        C  0.34414799  0.32288561  0.67440636     1.02400
O377        O  0.36911467  0.31853485  0.66899238    -0.78100
O378        O  0.41802321  0.31027392  0.64027841    -0.78300
C379        C  0.40201711  0.27855160  0.63147584     1.02300
O380        O  0.42775588  0.32911242  0.58432193    -0.85600
O381        O  0.37028993  0.32488496  0.55266304    -0.82700
C382        C  0.34015122  0.31940979  0.54606072     0.97900
O383        O  0.31849870  0.31256736  0.56581701    -0.82700
O384        O  0.34996689  0.36993155  0.60244330    -0.85300
C385        C  0.37353159  0.39243145  0.61948458     1.02400
O386        O  0.38874103  0.38383922  0.63931369    -0.78100
O387        O  0.43246947  0.37320857  0.60901999    -0.78300
C388        C  0.44563805  0.36064692  0.59301480     1.02300
Cr389      Cr  0.37459668  0.29738867  0.58379466     1.93700
Cr390      Cr  0.32722732  0.32042698  0.60976192     1.93200
Cr391      Cr  0.39980321  0.34473905  0.63782516     1.39100
O392        O  0.36727523  0.32109093  0.61042906    -1.23300
O393        O  0.21603783  0.04974732  0.67538675    -0.85600
O394        O  0.21278304  0.09532702  0.63828621    -0.82600
C395        C  0.20276354  0.10797391  0.61830361     0.97900
O396        O  0.17155174  0.09182328  0.60835578    -0.82700
O397        O  0.17109370  0.03697185  0.58011005    -0.85300
C398        C  0.16701923  0.00745319  0.57478377     1.02400
O399        O  0.15733666  0.48511127  0.59464504    -0.78100
O400        O  0.20731544  0.01223046  0.64011989    -0.78300
C401        C  0.22722903  0.03475438  0.65926984     1.02300
O402        O  0.14919211  0.03170116  0.69524230    -0.85600
O403        O  0.14727864  0.08202028  0.66154970    -0.82700
C404        C  0.11645686  0.06772145  0.65021588     0.97900
O405        O  0.10601085  0.04365074  0.63121818    -0.82700
O406        O  0.10174916  0.49150260  0.59680620    -0.85300
C407        C  0.08753041  0.46540341  0.61277171     1.02400
O408        O  0.10389683  0.46364889  0.63553397    -0.78100
O409        O  0.15482032  0.48731921  0.68253786    -0.78300
C410        C  0.14935738  0.50441132  0.70181571     1.02300
Cr411      Cr  0.17954537  0.06230263  0.66548049     1.93700
Cr412      Cr  0.13909190  0.04029440  0.60645874     1.93200
Cr413      Cr  0.15594566  0.48998429  0.63835437     1.39100
O414        O  0.15791555  0.03056134  0.63704877    -1.23300
O415        O  0.26161414  0.31872294  0.82524785    -0.85600
O416        O  0.26685303  0.36764306  0.86422115    -0.82600
C417        C  0.27790279  0.39111892  0.88375736     0.97900
O418        O  0.30938177  0.40576187  0.89303399    -0.82700
O419        O  0.30929029  0.35047041  0.91927236    -0.85300
C420        C  0.31297108  0.32477310  0.92400906     1.02400
O421        O  0.32211389  0.31182874  0.90380166    -0.78100
O422        O  0.27169457  0.28925693  0.85863851    -0.78300
C423        C  0.25122250  0.29159768  0.84002266     1.02300
O424        O  0.32811410  0.36793374  0.80461810    -0.85600
O425        O  0.33185631  0.42003541  0.84008651    -0.82700
C426        C  0.36299902  0.43654824  0.85091839     0.97900
O427        O  0.37408320  0.42238141  0.86863595    -0.82700
O428        O  0.37857867  0.37372982  0.90195488    -0.85300
C429        C  0.39220893  0.36149855  0.88544513     1.02400
O430        O  0.37529348  0.34394585  0.86253000    -0.78100
O431        O  0.32397407  0.31818379  0.81591691    -0.78300
C432        C  0.32883561  0.34109461  0.79729548     1.02300
Cr433      Cr  0.29891999  0.36787543  0.83557251     1.93700
Cr434      Cr  0.34130604  0.38585186  0.89339418     1.93200
Cr435      Cr  0.32314417  0.31866899  0.86017434     1.39100
O436        O  0.32145469  0.35742704  0.86267550    -1.23300
O437        O  0.10686547  0.38158606  0.88555719    -0.85600
O438        O  0.15869939  0.42627370  0.92078170    -0.82600
C439        C  0.18150156  0.43824113  0.90165087     0.97900
O440        O  0.18126607  0.45874053  0.88275993    -0.82700
O441        O  0.15457565  0.49050801  0.84520475    -0.85300
C442        C  0.13848407  0.46868038  0.82421661     1.02400
O443        O  0.11397872  0.43907157  0.82953917    -0.78100
O444        O  0.06545059  0.38147940  0.85816408    -0.78300
C445        C  0.08165134  0.36625867  0.86749715     1.02300
O446        O  0.05487797  0.39062019  0.91410755    -0.85600
O447        O  0.11212021  0.44495490  0.94638085    -0.82700
C448        C  0.14200521  0.47037892  0.95278519     0.97900
O449        O  0.16373307  0.48486276  0.93304497    -0.82700
O450        O  0.13201615  0.00961954  0.89599253    -0.85300
C451        C  0.10809981  0.00788330  0.87906305     1.02400
O452        O  0.09298454  0.48378218  0.85933897    -0.78100
O453        O  0.04909337  0.42893351  0.88903025    -0.78300
C454        C  0.03618320  0.40307841  0.90478366     1.02300
Cr455      Cr  0.10827821  0.41306343  0.91511208     1.93700
Cr456      Cr  0.15533084  0.48323033  0.88904913     1.93200
Cr457      Cr  0.08278694  0.43398397  0.86066384     1.39100
O458        O  0.11534179  0.44365859  0.88835006    -1.23300
O459        O  0.09625991  0.20398848  0.86703823    -0.85600
O460        O  0.05631199  0.21611855  0.90126274    -0.82600
C461        C  0.03818076  0.22387923  0.88394675     0.97900
O462        O  0.01082094  0.20074829  0.87098437    -0.82700
O463        O  0.48118000  0.15002225  0.83019075    -0.85300
C464        C  0.00393748  0.16197142  0.81083233     1.02400
O465        O  0.03268171  0.16333044  0.81545270    -0.78100
O466        O  0.08833932  0.15964619  0.84122678    -0.78300
C467        C  0.10705335  0.19119148  0.84874180     1.02300
O468        O  0.08008738  0.13910452  0.89726204    -0.85600
O469        O  0.03827389  0.15273997  0.93234550    -0.82700
C470        C  0.51023877  0.15103008  0.93894016     0.97900
O471        O  0.49053443  0.15330521  0.91907903    -0.82700
O472        O  0.46373600  0.09958132  0.87636627    -0.85300
C473        C  0.46252661  0.08172328  0.85435456     1.02400
O474        O  0.48520094  0.09525657  0.83536903    -0.78100
O475        O  0.03852113  0.09842298  0.86834459    -0.78300
C476        C  0.06362411  0.10790761  0.88674647     1.02300
Cr477      Cr  0.06507148  0.17600898  0.89778839     1.93700
Cr478      Cr  0.48938919  0.15080073  0.87441071     1.93200
Cr479      Cr  0.03571843  0.13095595  0.84226239     1.39100
O480        O  0.02985081  0.15231410  0.87216547    -1.23300
C481        C  0.04939921  0.26030304  0.87708011    -0.05700
C482        C  0.02478902  0.26930862  0.86632475    -0.33100
C483        C  0.03504613  0.30353229  0.85889558     0.36100
C484        C  0.07033189  0.32925097  0.86207656    -0.06100
C485        C  0.09503541  0.31910133  0.86926712    -0.33000
C486        C  0.08489282  0.28538090  0.87741058     0.36000
H487        H  0.99735789  0.24997781  0.86453221     0.16400
O488        O  0.01020841  0.31180585  0.85060613    -0.60500
H489        H  0.12254807  0.33821284  0.87107555     0.16400
O490        O  0.10985780  0.27757306  0.88673461    -0.60600
H491        H  0.12378387  0.28045003  0.86950800     0.43400
H492        H  0.51059492  0.31297713  0.82890136     0.43300
C493        C  0.09736668  0.03396339  0.88309946    -0.05700
C494        C  0.06188222  0.02296554  0.88292028    -0.33100
C495        C  0.05069453  0.04662517  0.88786578     0.36100
C496        C  0.07514254  0.08241229  0.89202359    -0.06100
C497        C  0.11073310  0.09320989  0.89383232    -0.33000
C498        C  0.12191464  0.06920069  0.88959816     0.36000
H499        H  0.04267718  0.49581121  0.87912003     0.16400
O500        O  0.01558574  0.03469752  0.88706223    -0.60500
H501        H  0.12992937  0.12049586  0.89658569     0.16400
O502        O  0.15691615  0.08067833  0.89062624    -0.60600
H503        H  0.16406805  0.08701810  0.87024046     0.43400
H504        H  0.00875917  0.02877693  0.90757086     0.43300
C505        C  0.38586785  0.47362238  0.84593691    -0.05700
C506        C  0.37611343  0.49735110  0.85538325    -0.33100
C507        C  0.40062796  0.03286808  0.85787615     0.36100
C508        C  0.43518478  0.04498203  0.85033663    -0.06100
C509        C  0.44417933  0.02137696  0.83907583    -0.33000
C510        C  0.42001420  0.48588355  0.83742116     0.36000
H511        H  0.35003939  0.48813541  0.86248575     0.16400
O512        O  0.39075115  0.05534603  0.86824010    -0.60500
H513        H  0.47055287  0.03027731  0.83289334     0.16400
O514        O  0.43010815  0.46320373  0.82795829    -0.60600
H515        H  0.44255943  0.46012791  0.84517252     0.43400
H516        H  0.38355903  0.06341969  0.85051300     0.43300
C517        C  0.14270271  0.21303222  0.83872083    -0.05700
C518        C  0.16815340  0.20407782  0.84564552    -0.33100
C519        C  0.20373794  0.22884443  0.84469394     0.36100
C520        C  0.21428181  0.26304405  0.83627247    -0.06100
C521        C  0.18853699  0.27072919  0.82655498    -0.33000
C522        C  0.15308866  0.24609064  0.82782539     0.36000
H523        H  0.16055961  0.17865446  0.85392362     0.16400
O524        O  0.22795347  0.21953106  0.85260804    -0.60500
H525        H  0.19580135  0.29656295  0.81957861     0.16400
O526        O  0.12870917  0.25512407  0.81978377    -0.60600
H527        H  0.12424656  0.25007053  0.79835977     0.43400
H528        H  0.22913187  0.22003270  0.87437028     0.43300
C529        C  0.25483683  0.40360790  0.89325023    -0.05700
C530        C  0.26611129  0.43906816  0.89201379    -0.33100
C531        C  0.24263272  0.45093987  0.89523785     0.36100
C532        C  0.20777682  0.42738196  0.90112008    -0.06100
C533        C  0.19722205  0.39227329  0.90453220    -0.33000
C534        C  0.22025861  0.38017906  0.89991598     0.36000
H535        H  0.29264077  0.45733260  0.88679481     0.16400
O536        O  0.25396380  0.48555665  0.89266113    -0.60500
H537        H  0.17054195  0.37386850  0.90925025     0.16400
O538        O  0.20878325  0.34544679  0.90183151    -0.60600
H539        H  0.19631976  0.33493627  0.88268424     0.43400
H540        H  0.25349504  0.48919551  0.87124133     0.43300
C541        C  0.99816678  0.38616424  0.90809169    -0.05700
C542        C  0.47593789  0.35650062  0.89062396    -0.33100
C543        C  0.44126672  0.34758914  0.88328571     0.36100
C544        C  0.42798647  0.36814251  0.89398436    -0.06100
C545        C  0.44959724  0.39614904  0.91347112    -0.33000
C546        C  0.48431245  0.40538747  0.92018183     0.36000
H547        H  0.98627446  0.34181180  0.88066265     0.16400
O548        O  0.42089003  0.31910683  0.86532063    -0.60500
H549        H  0.44017127  0.41225625  0.92238499     0.16400
O550        O  0.50536802  0.43503589  0.93666517    -0.60600
H551        H  0.50660104  0.42705884  0.95669348     0.43400
H552        H  0.42685541  0.32728061  0.84507348     0.43300
C553        C  0.14671550  0.49459609  0.73297466    -0.05700
C554        C  0.15946704  0.02083440  0.75501035    -0.33100
C555        C  0.15914003  0.51309264  0.78473939     0.36100
C556        C  0.14511498  0.47841669  0.79309311    -0.06100
C557        C  0.13279640  0.45221129  0.77098733    -0.33000
C558        C  0.13389924  0.46010320  0.74119511     0.36000
H559        H  0.17007662  0.04766628  0.74917948     0.16400
O560        O  0.17078231  0.03948773  0.80539700    -0.60500
H561        H  0.12159781  0.42531953  0.77681568     0.16400
O562        O  0.12081712  0.43372690  0.72039779    -0.60600
H563        H  0.14018724  0.42934754  0.71703140     0.43400
H564        H  0.19603873  0.04807844  0.80857271     0.43300
C565        C  0.15260488  0.48033305  0.98382165    -0.05700
C566        C  0.13928492  0.45430718  0.00459264    -0.33100
C567        C  0.14698519  0.46242670  0.53446042     0.36100
C568        C  0.16755868  0.49734863  0.54409971    -0.06100
C569        C  0.18295188  0.02316167  0.52317095    -0.33000
C570        C  0.17583362  0.01479034  0.99313597     0.36000
H571        H  0.12227290  0.42745691  0.99766351     0.16400
O572        O  0.13178079  0.43623058  0.55395559    -0.60500
H573        H  0.19912272  0.05011602  0.53011588     0.16400
O574        O  0.19036902  0.04062420  0.97324371    -0.60600
H575        H  0.17299021  0.04803706  0.96940095     0.43400
H576        H  0.14888145  0.42847239  0.55780041     0.43300
C577        C  0.32931393  0.31686274  0.51491030    -0.05700
C578        C  0.34561314  0.30678524  0.49457597    -0.33100
C579        C  0.33755817  0.30541757  0.96463924     0.36100
C580        C  0.31310204  0.31471843  0.95454221    -0.06100
C581        C  0.29498983  0.32245434  0.97497011    -0.33000
C582        C  0.30290844  0.32350442  0.50506058     0.36000
H583        H  0.36540653  0.30070149  0.50183950     0.16400
O584        O  0.35644314  0.29855073  0.94547568    -0.60500
H585        H  0.27618546  0.32978963  0.96750899     0.16400
O586        O  0.28601151  0.33275851  0.52442557    -0.60600
H587        H  0.30046001  0.35831857  0.52682127     0.43400
H588        H  0.34369527  0.27298047  0.94275271     0.43300
C589        C  0.33238655  0.33539181  0.76598165    -0.05700
C590        C  0.31960058  0.34928581  0.74450862    -0.33100
C591        C  0.32155771  0.34395711  0.71458348     0.36100
C592        C  0.33665436  0.32449216  0.70552420    -0.06100
C593        C  0.34902732  0.31020450  0.72704699    -0.33000
C594        C  0.34676664  0.31531061  0.75700853     0.36000
H595        H  0.30791214  0.36438864  0.75092937     0.16400
O596        O  0.30959748  0.35884019  0.69450284    -0.60500
H597        H  0.36119660  0.29554789  0.72065591     0.16400
O598        O  0.36033324  0.30210486  0.77727792    -0.60600
H599        H  0.34176129  0.27770121  0.77948122     0.43400
H600        H  0.32988669  0.38202154  0.69118044     0.43300
C601        C  0.27490467  0.21263773  0.59870250    -0.05700
C602        C  0.28460293  0.18734296  0.59608248    -0.33100
C603        C  0.26098694  0.15271610  0.60170284     0.36100
C604        C  0.22677760  0.14293859  0.60859062    -0.06100
C605        C  0.21637556  0.16777254  0.60886718    -0.33000
C606        C  0.24041947  0.20262653  0.60477303     0.36000
H607        H  0.31101784  0.19472958  0.59118834     0.16400
O608        O  0.27183539  0.12888178  0.60128475    -0.60500
H609        H  0.19007753  0.16046979  0.61388626     0.16400
O610        O  0.23002747  0.22672801  0.60673841    -0.60600
H611        H  0.23052305  0.23150100  0.62807341     0.43400
H612        H  0.26296447  0.11638586  0.58202405     0.43300
C613        C  0.05204737  0.43683104  0.60350951    -0.05700
C614        C  0.04124250  0.40244551  0.61068421    -0.33100
C615        C  0.00730641  0.37560901  0.60287740     0.36100
C616        C  0.48315870  0.38301453  0.58866565    -0.06100
C617        C  0.49465634  0.41694750  0.57981419    -0.33000
C618        C  0.02877892  0.44358294  0.58665087     0.36000
H619        H  0.05890513  0.39643007  0.62285504     0.16400
O620        O  0.49704381  0.34281925  0.61182551    -0.62900
H621        H  0.47629198  0.42335954  0.56946087     0.16400
O622        O  0.03807652  0.47666282  0.57888316    -0.60600
H623        H  0.04468941  0.47827147  0.55820991     0.43400
H624        H  0.00059862  0.33110981  0.59491433     0.43300
C625        C  0.49566335  0.16956250  0.78112133    -0.05700
C626        C  0.46084353  0.15397008  0.77075713    -0.33100
C627        C  0.45241046  0.14984242  0.74058450     0.36100
C628        C  0.47918894  0.16159388  0.72047941    -0.06100
C629        C  0.01384139  0.18217258  0.73100228    -0.33000
C630        C  0.02219788  0.18644593  0.76112868     0.36000
H631        H  0.44003128  0.14194688  0.78580251     0.16400
O632        O  0.41795716  0.13236304  0.73104731    -0.60500
H633        H  0.03478098  0.19240214  0.71600388     0.16400
O634        O  0.05660965  0.20440793  0.77060594    -0.60600
H635        H  0.06097898  0.22759380  0.77692703     0.43400
H636        H  0.40949950  0.10762295  0.73499477     0.43300
C637        C  0.48213347  0.13808386  0.53050413    -0.05700
C638        C  0.01722410  0.15662415  0.52337019    -0.33100
C639        C  0.02665553  0.16070423  0.99386163     0.36100
C640        C  0.50084716  0.14693698  0.97051424    -0.06100
C641        C  0.46580575  0.12936063  0.97766897    -0.33000
C642        C  0.45639084  0.12470992  0.50708726     0.36000
H643        H  0.03752179  0.16756520  0.54073033     0.16400
O644        O  0.06126681  0.17934445  0.98811545    -0.60500
H645        H  0.44546604  0.11872531  0.96033151     0.16400
O646        O  0.42168394  0.10720946  0.51261793    -0.60600
H647        H  0.41485620  0.12519771  0.51323477     0.43400
H648        H  0.06987673  0.16279195  0.99024760     0.43300
C649        C  0.43430033  0.20533748  0.62151365    -0.05700
C650        C  0.39924812  0.19428067  0.62513527    -0.33100
C651        C  0.38908663  0.21772227  0.63388728     0.36100
C652        C  0.41384685  0.25346552  0.63750738    -0.06100
C653        C  0.44919635  0.26396896  0.63677243    -0.33000
C654        C  0.45958395  0.24016687  0.62894473     0.36000
H655        H  0.37962728  0.16722645  0.62156226     0.16400
O656        O  0.35435820  0.20584958  0.63680394    -0.60500
H657        H  0.46864203  0.29087280  0.64053419     0.16400
O658        O  0.49437540  0.25161743  0.62697226    -0.60600
H659        H  0.50343468  0.25297145  0.64747693     0.43400
H660        H  0.35038084  0.20002132  0.65775849     0.43300
C661        C  0.38336310  0.42900894  0.61547790    -0.05700
C662        C  0.35757437  0.43797784  0.60939532    -0.33100
C663        C  0.36666803  0.47261307  0.60479001     0.36100
C664        C  0.40197708  0.49861418  0.60553734    -0.06100
C665        C  0.42748834  0.48885529  0.60904100    -0.33000
C666        C  0.41851775  0.45474600  0.61475691     0.36000
H667        H  0.33029663  0.41824587  0.60923780     0.16400
O668        O  0.34100649  0.48101366  0.60195348    -0.60500
H669        H  0.45483466  0.00836371  0.60920167     0.16400
O670        O  0.44436491  0.44675141  0.61906705    -0.60600
H671        H  0.45153282  0.45172411  0.64023056     0.43400
H672        H  0.33383812  0.47754854  0.58075384     0.43300
C673        C  0.26434291  0.04482832  0.66212577    -0.05700
C674        C  0.27441655  0.01987537  0.65863063    -0.33100
C675        C  0.30966115  0.02988881  0.65703167     0.36100
C676        C  0.33509744  0.06531649  0.65760693    -0.06100
C677        C  0.32513719  0.09005069  0.66271658    -0.33000
C678        C  0.29019601  0.08004370  0.66551199     0.36000
H679        H  0.25485283  0.49266706  0.65627039     0.16400
O680        O  0.31855121  0.00507129  0.65222362    -0.60500
H681        H  0.34441576  0.11742687  0.66325141     0.16400
O682        O  0.28137237  0.10518577  0.66869396    -0.60600
H683        H  0.28353360  0.11018607  0.69013487     0.43400
H684        H  0.32345680  0.49900535  0.67204741     0.43300
C685        C  0.04108818  0.09901673  0.65277105    -0.05700
C686        C  0.07547344  0.12325725  0.64661279    -0.33100
C687        C  0.10151892  0.11446561  0.64896987     0.36100
C688        C  0.09297419  0.08071087  0.65654055    -0.06100
C689        C  0.05901345  0.05702871  0.66408083    -0.33000
C690        C  0.03314803  0.06610780  0.66262471     0.36000
H691        H  0.08199068  0.14881298  0.63936886     0.16400
O692        O  0.13445157  0.13795950  0.64120993    -0.60500
H693        H  0.05215432  0.03086720  0.66971747     0.16400
O694        O  0.99985649  0.04212298  0.66939961    -0.60600
H695        H  0.99103001  0.02417112  0.65344161     0.43400
H696        H  0.14660484  0.15151345  0.65950430     0.43300
O697        O  0.38288498  0.60114110  0.13010990    -0.85600
O698        O  0.42584893  0.65332844  0.09767752    -0.82600
C699        C  0.44416738  0.67901564  0.11534649     0.97900
O700        O  0.47001811  0.68171229  0.12973902    -0.82700
O701        O  0.49553996  0.65798306  0.17159076    -0.85300
C702        C  0.47183304  0.64701269  0.19017561     1.02400
O703        O  0.44282477  0.62039954  0.18421055    -0.78100
O704        O  0.38776465  0.56308089  0.15586545    -0.78300
C705        C  0.37051499  0.57728329  0.14798556     1.02300
O706        O  0.39803532  0.55110909  0.10056848    -0.85600
O707        O  0.44361496  0.60654724  0.06775802    -0.82700
C708        C  0.47210798  0.63270186  0.06194547     0.97900
O709        O  0.49122657  0.65433563  0.08236662    -0.82700
O710        O  0.01378121  0.62483986  0.12577272    -0.85300
C711        C  0.01355275  0.60772034  0.14774001     1.02400
O712        O  0.48995204  0.59848799  0.16584613    -0.78100
O713        O  0.43785206  0.55044706  0.13050933    -0.78300
C714        C  0.41339913  0.53554638  0.11142307     1.02300
Cr715      Cr  0.41508293  0.60362664  0.10075261     1.93700
Cr716      Cr  0.48982322  0.65185084  0.12705491     1.93200
Cr717      Cr  0.44021980  0.58538012  0.15699512     1.39100
O718        O  0.44856080  0.61365655  0.12769196    -1.23300
O719        O  0.37684967  0.76789606  0.11330539    -0.85600
O720        O  0.32432077  0.75962691  0.07862596    -0.82600
C721        C  0.30163123  0.74938697  0.09783467     0.97900
O722        O  0.30202220  0.77046746  0.11654197    -0.82700
O723        O  0.32816145  0.82889136  0.15361245    -0.85300
C724        C  0.34414898  0.82288615  0.17440632     1.02400
O725        O  0.36911549  0.81853514  0.16899229    -0.78100
O726        O  0.41802405  0.81027425  0.14027832    -0.78300
C727        C  0.40201801  0.77855194  0.13147585     1.02300
O728        O  0.42775638  0.82911263  0.08432143    -0.85600
O729        O  0.37029004  0.82488466  0.05266275    -0.82700
C730        C  0.34015122  0.81940938  0.04606065     0.97900
O731        O  0.31849896  0.81256710  0.06581711    -0.82700
O732        O  0.34996759  0.86993162  0.10244306    -0.85300
C733        C  0.37353225  0.89243155  0.11948434     1.02400
O734        O  0.38874176  0.88383940  0.13931347    -0.78100
O735        O  0.43247021  0.87320878  0.10901974    -0.78300
C736        C  0.44563861  0.86064710  0.09301438     1.02300
Cr737      Cr  0.37459726  0.79738874  0.08379448     1.93700
Cr738      Cr  0.32722803  0.82042712  0.10976194     1.93200
Cr739      Cr  0.39980399  0.84473930  0.13782498     1.39100
O740        O  0.36727594  0.82109109  0.11042893    -1.23300
O741        O  0.21603834  0.54974713  0.17538737    -0.85600
O742        O  0.21278390  0.59532695  0.13828685    -0.82600
C743        C  0.20276456  0.60797395  0.11830426     0.97900
O744        O  0.17155284  0.59182343  0.10835621    -0.82700
O745        O  0.17109450  0.53697182  0.08011046    -0.85300
C746        C  0.16701981  0.50745306  0.07478413     1.02400
O747        O  0.15733706  0.98511067  0.09464516    -0.78100
O748        O  0.20731599  0.51223026  0.14012053    -0.78300
C749        C  0.22722955  0.53475409  0.15927058     1.02300
O750        O  0.14919251  0.53170110  0.19524252    -0.85600
O751        O  0.14727943  0.58202044  0.16155009    -0.82700
C752        C  0.11645769  0.56772170  0.15021618     0.97900
O753        O  0.10601175  0.54365111  0.13121839    -0.82700
O754        O  0.10174980  0.99150250  0.09680598    -0.85300
C755        C  0.08753082  0.96540333  0.11277145     1.02400
O756        O  0.10389699  0.96364869  0.13553384    -0.78100
O757        O  0.15481993  0.98731859  0.18253797    -0.78300
C758        C  0.14935673  0.00441076  0.20181560     1.02300
Cr759      Cr  0.17954603  0.56230260  0.16548095     1.93700
Cr760      Cr  0.13909277  0.54029461  0.10645907     1.93200
Cr761      Cr  0.15594575  0.98998373  0.13835450     1.39100
O762        O  0.15791627  0.53056141  0.13704913    -1.23300
O763        O  0.26161406  0.81872329  0.32524792    -0.85600
O764        O  0.26685334  0.86764369  0.36422134    -0.82600
C765        C  0.27790336  0.89111973  0.38375743     0.97900
O766        O  0.30938241  0.90576267  0.39303381    -0.82700
O767        O  0.30929091  0.85047115  0.41927225    -0.85300
C768        C  0.31297164  0.82477378  0.42400891     1.02400
O769        O  0.32211435  0.81182937  0.40380150    -0.78100
O770        O  0.27169494  0.78925752  0.35863851    -0.78300
C771        C  0.25122263  0.79159807  0.34002281     1.02300
O772        O  0.32811375  0.86793399  0.30461782    -0.85600
O773        O  0.33185652  0.92003584  0.34008634    -0.82700
C774        C  0.36299930  0.93654869  0.35091806     0.97900
O775        O  0.37408363  0.92238190  0.36863553    -0.82700
O776        O  0.37857915  0.87373044  0.40195450    -0.85300
C777        C  0.39220934  0.86149902  0.38544486     1.02400
O778        O  0.37529388  0.84394631  0.36252973    -0.78100
O779        O  0.32397434  0.81818432  0.31591676    -0.78300
C780        C  0.32883562  0.84109504  0.29729528     1.02300
Cr781      Cr  0.29892002  0.86787585  0.33557246     1.93700
Cr782      Cr  0.34130655  0.88585249  0.39339388     1.93200
Cr783      Cr  0.32314452  0.81866954  0.36017417     1.39100
O784        O  0.32145501  0.85742758  0.36267529    -1.23300
O785        O  0.10686543  0.88158625  0.38555684    -0.85600
O786        O  0.15869944  0.92627374  0.42078140    -0.82600
C787        C  0.18150160  0.93824135  0.40165056     0.97900
O788        O  0.18126578  0.95874054  0.38275956    -0.82700
O789        O  0.15457494  0.99050786  0.34520463    -0.85300
C790        C  0.13848297  0.96868022  0.32421657     1.02400
O791        O  0.11397764  0.93907149  0.32953928    -0.78100
O792        O  0.06545008  0.88147952  0.35816439    -0.78300
C793        C  0.08165103  0.86625884  0.36749705     1.02300
O794        O  0.05487789  0.89061994  0.41410768    -0.85600
O795        O  0.11212044  0.94495480  0.44638086    -0.82700
C796        C  0.14200543  0.97037892  0.45278508     0.97900
O797        O  0.16373318  0.98486285  0.43304480    -0.82700
O798        O  0.13201658  0.50962016  0.39599262    -0.85300
C799        C  0.10810007  0.50788384  0.37906332     1.02400
O800        O  0.09298404  0.98378232  0.35933953    -0.78100
O801        O  0.04909343  0.92893372  0.38903106    -0.78300
C802        C  0.03618316  0.90307832  0.40478415     1.02300
Cr803      Cr  0.10827823  0.91306338  0.41511200     1.93700
Cr804      Cr  0.15533062  0.98323035  0.38904903     1.93200
Cr805      Cr  0.08278645  0.93398408  0.36066427     1.39100
O806        O  0.11534160  0.94365863  0.38835015    -1.23300
O807        O  0.09625991  0.70398879  0.36703831    -0.85600
O808        O  0.05631212  0.71611899  0.40126284    -0.82600
C809        C  0.03818076  0.72387962  0.38394696     0.97900
O810        O  0.01082092  0.70074865  0.37098463    -0.82700
O811        O  0.48118008  0.65002274  0.33019098    -0.85300
C812        C  0.00393741  0.66197186  0.31083251     1.02400
O813        O  0.03268161  0.66333079  0.31545289    -0.78100
O814        O  0.08833919  0.65964643  0.34122691    -0.78300
C815        C  0.10705332  0.69119171  0.34874194     1.02300
O816        O  0.08008715  0.63910475  0.39726228    -0.85600
O817        O  0.03827399  0.65274047  0.43234571    -0.82700
C818        C  0.51023891  0.65103047  0.43894041     0.97900
O819        O  0.49053453  0.65330562  0.41907933    -0.82700
O820        O  0.46373600  0.59958163  0.37636647    -0.85300
C821        C  0.46252650  0.58172366  0.35435467     1.02400
O822        O  0.48520082  0.59525700  0.33536914    -0.78100
O823        O  0.03852094  0.59842324  0.36834475    -0.78300
C824        C  0.06362387  0.60790784  0.38674671     1.02300
Cr825      Cr  0.06507148  0.67600935  0.39778853     1.93700
Cr826      Cr  0.48938925  0.65080108  0.37441097     1.93200
Cr827      Cr  0.03571828  0.63095626  0.34226255     1.39100
O828        O  0.02985076  0.65231446  0.37216564    -1.23300
C829        C  0.04939905  0.76030338  0.37708033    -0.05700
C830        C  0.02478865  0.76930890  0.36632547    -0.33100
C831        C  0.03504564  0.80353248  0.35889614     0.36100
C832        C  0.07033148  0.82925114  0.36207642    -0.06100
C833        C  0.09503512  0.81910148  0.36926644    -0.33000
C834        C  0.08489264  0.78538112  0.37741004     0.36000
H835        H  0.99735749  0.74997808  0.36453347     0.16400
O836        O  0.01020776  0.81180609  0.35060728    -0.60500
H837        H  0.12254785  0.83821301  0.37107441     0.16400
O838        O  0.10985777  0.77757313  0.38673333    -0.60600
H839        H  0.12378287  0.78044957  0.36950653     0.43400
H840        H  0.51059410  0.81297686  0.32890194     0.43300
C841        C  0.09736674  0.53396381  0.38309982    -0.05700
C842        C  0.06188223  0.52296588  0.38292038    -0.33100
C843        C  0.05069433  0.54662536  0.38786588     0.36100
C844        C  0.07514227  0.58241251  0.39202392    -0.06100
C845        C  0.11073286  0.59321017  0.39383304    -0.33000
C846        C  0.12191457  0.56920111  0.38959890     0.36000
H847        H  0.04267705  0.99581157  0.37912242     0.16400
O848        O  0.01558558  0.53469765  0.38706201    -0.60500
H849        H  0.12992907  0.62049613  0.39658670     0.16400
O850        O  0.15691609  0.58067882  0.39062746    -0.60600
H851        H  0.16406867  0.58701982  0.37024147     0.43400
H852        H  0.00875874  0.52877784  0.40757192     0.43300
C853        C  0.38586801  0.97362285  0.34593656    -0.05700
C854        C  0.37611388  0.99735152  0.35538362    -0.33100
C855        C  0.40062810  0.53286828  0.35787735     0.36100
C856        C  0.43518456  0.54498239  0.35033665    -0.06100
C857        C  0.44417863  0.52137745  0.33907461    -0.33000
C858        C  0.42001411  0.98588402  0.33742019     0.36000
H859        H  0.35004005  0.98813582  0.36248660     0.16400
O860        O  0.39075160  0.55534608  0.36824236    -0.60500
H861        H  0.47055189  0.53027790  0.33289116     0.16400
O862        O  0.43010788  0.96320423  0.32795685    -0.60600
H863        H  0.44255907  0.96012805  0.34517090     0.43400
H864        H  0.38355718  0.56341845  0.35051609     0.43300
C865        C  0.14270280  0.71303229  0.33872118    -0.05700
C866        C  0.16815357  0.70407838  0.34564712    -0.33100
C867        C  0.20373811  0.72884504  0.34469564     0.36100
C868        C  0.21428194  0.76304428  0.33627292    -0.06100
C869        C  0.18853707  0.77072889  0.32655440    -0.33000
C870        C  0.15308872  0.74609029  0.32782479     0.36000
H871        H  0.16055982  0.67865543  0.35392614     0.16400
O872        O  0.22795360  0.71953217  0.35261114    -0.60500
H873        H  0.19580137  0.79656229  0.31957709     0.16400
O874        O  0.12870918  0.75512326  0.31978214    -0.60600
H875        H  0.12424770  0.75007001  0.29835771     0.43400
H876        H  0.22913132  0.72003451  0.37437404     0.43300
C877        C  0.25483758  0.90360890  0.39325040    -0.05700
C878        C  0.26611151  0.93906898  0.39201256    -0.33100
C879        C  0.24263272  0.95094045  0.39523649     0.36100
C880        C  0.20777719  0.92738261  0.40111986    -0.06100
C881        C  0.19722306  0.89227427  0.40453331    -0.33000
C882        C  0.22025979  0.88018018  0.39991745     0.36000
H883        H  0.29264062  0.95733327  0.38679264     0.16400
O884        O  0.25396329  0.98555705  0.39265852    -0.60500
H885        H  0.17054312  0.87386947  0.40925209     0.16400
O886        O  0.20878509  0.84544823  0.40183450    -0.60600
H887        H  0.19632009  0.83493612  0.38268730     0.43400
H888        H  0.25349418  0.98919486  0.37123922     0.43300
C889        C  0.99816683  0.88616466  0.40809258    -0.05700
C890        C  0.47593773  0.85650003  0.39062513    -0.33100
C891        C  0.44126665  0.84758869  0.38328667     0.36100
C892        C  0.42798678  0.86814282  0.39398432    -0.06100
C893        C  0.44959768  0.89614984  0.41347056    -0.33000
C894        C  0.48431278  0.90538818  0.42018153     0.36000
H895        H  0.98627316  0.84180867  0.38066779     0.16400
O896        O  0.42088961  0.81910573  0.36532235    -0.60500
H897        H  0.44017193  0.91225755  0.42238375     0.16400
O898        O  0.50536840  0.93503742  0.43666387    -0.60600
H899        H  0.50662114  0.92705977  0.45668881     0.43400
H900        H  0.42685483  0.82727842  0.34507542     0.43300
C901        C  0.14671437  0.99459558  0.23297453    -0.05700
C902        C  0.15946828  0.52083457  0.25501047    -0.33100
C903        C  0.15913970  0.01309241  0.28473919     0.36100
C904        C  0.14511357  0.97841637  0.29309301    -0.06100
C905        C  0.13279390  0.95221076  0.27098731    -0.33000
C906        C  0.13389676  0.96010258  0.24119509     0.36000
H907        H  0.17007858  0.54766651  0.24917955     0.16400
O908        O  0.17078453  0.53948806  0.30539709    -0.60500
H909        H  0.12159453  0.92531899  0.27681571     0.16400
O910        O  0.12081344  0.93372607  0.22039785    -0.60600
H911        H  0.14018240  0.92934562  0.21703141     0.43400
H912        H  0.19604067  0.54807772  0.30857283     0.43300
C913        C  0.15260519  0.98033313  0.48382145    -0.05700
C914        C  0.13928563  0.95430723  0.50459241    -0.33100
C915        C  0.14698592  0.96242612  0.03446046     0.36100
C916        C  0.16755934  0.99734804  0.04409978    -0.06100
C917        C  0.18295243  0.52316138  0.02317123    -0.33000
C918        C  0.17583324  0.51479098  0.49313589     0.36000
H919        H  0.12227405  0.92745693  0.49766330     0.16400
O920        O  0.13178186  0.93623001  0.05395563    -0.60500
H921        H  0.19912387  0.55011565  0.03011621     0.16400
O922        O  0.19036877  0.54062481  0.47324366    -0.60600
H923        H  0.17298932  0.54803773  0.46940054     0.43400
H924        H  0.14888301  0.92847214  0.05780045     0.43300
C925        C  0.32931360  0.81686222  0.01491033    -0.05700
C926        C  0.34561174  0.80678357  0.99457590    -0.33100
C927        C  0.33755947  0.80541919  0.46463922     0.36100
C928        C  0.31310262  0.81471907  0.45454204    -0.06100
C929        C  0.29498946  0.82245386  0.47496980    -0.33000
C930        C  0.30290887  0.82350512  0.00506081     0.36000
H931        H  0.36540449  0.80069885  0.00183934     0.16400
O932        O  0.35644544  0.79855356  0.44547578    -0.60500
H933        H  0.27618449  0.82978830  0.46750853     0.16400
O934        O  0.28601296  0.83276032  0.02442594    -0.60600
H935        H  0.30046198  0.85832048  0.02682112     0.43400
H936        H  0.34369815  0.77298380  0.44275198     0.43300
C937        C  0.33238695  0.83539241  0.26598149    -0.05700
C938        C  0.31960181  0.84928704  0.24450834    -0.33100
C939        C  0.32155927  0.84395844  0.21458325     0.36100
C940        C  0.33665547  0.82449300  0.20552413    -0.06100
C941        C  0.34902786  0.81020495  0.22704700    -0.33000
C942        C  0.34676679  0.81531091  0.25700850     0.36000
H943        H  0.30791374  0.86439028  0.25092896     0.16400
O944        O  0.30959973  0.85884200  0.19450250    -0.60500
H945        H  0.36119689  0.79554803  0.22065600     0.16400
O946        O  0.36033287  0.80210482  0.27727801    -0.60600
H947        H  0.34176034  0.77770108  0.27948136     0.43400
H948        H  0.32988948  0.88202337  0.19118022     0.43300
C949        C  0.27490563  0.71263776  0.09870328    -0.05700
C950        C  0.28460383  0.68734295  0.09608295    -0.33100
C951        C  0.26098788  0.65271607  0.10170335     0.36100
C952        C  0.22677867  0.64293866  0.10859149    -0.06100
C953        C  0.21637673  0.66777265  0.10886856    -0.33000
C954        C  0.24042059  0.70262662  0.10477438     0.36000
H955        H  0.31101866  0.69472953  0.09118845     0.16400
O956        O  0.27183619  0.62888165  0.10128488    -0.60500
H957        H  0.19007878  0.66046993  0.11388796     0.16400
O958        O  0.23002858  0.72672807  0.10674004    -0.60600
H959        H  0.23052419  0.73150093  0.12807526     0.43400
H960        H  0.26296501  0.61638578  0.08202390     0.43300
C961        C  0.05204785  0.93683095  0.10350912    -0.05700
C962        C  0.04124257  0.90244571  0.11068500    -0.33100
C963        C  0.00730649  0.87560919  0.10287836     0.36100
C964        C  0.48315927  0.88301445  0.08866537    -0.06100
C965        C  0.49465719  0.91694713  0.07981291    -0.33000
C966        C  0.02877983  0.94358254  0.08664943     0.36000
H967        H  0.05890481  0.89643047  0.12285673     0.16400
O968        O  0.49704344  0.84281986  0.11182779    -0.62900
H969        H  0.47629305  0.92335896  0.06945880     0.16400
O970        O  0.03807787  0.97666218  0.07888060    -0.60600
H971        H  0.04469129  0.97827005  0.05820751     0.43400
H972        H  0.00059915  0.83110973  0.09491804     0.43300
C973        C  0.49566352  0.66956307  0.28112153    -0.05700
C974        C  0.46084373  0.65397067  0.27075721    -0.33100
C975        C  0.45241081  0.64984291  0.24058454     0.36100
C976        C  0.47918938  0.66159415  0.22047955    -0.06100
C977        C  0.01384165  0.68217284  0.23100245    -0.33000
C978        C  0.02219802  0.68644632  0.26112887     0.36000
H979        H  0.44003140  0.64194753  0.28580254     0.16400
O980        O  0.41795757  0.63236351  0.23104720    -0.60500
H981        H  0.03478127  0.69240228  0.21600410     0.16400
O982        O  0.05660970  0.70440836  0.27060621    -0.60600
H983        H  0.06097994  0.72759610  0.27692429     0.43400
H984        H  0.40949989  0.60762332  0.23499475     0.43300
C985        C  0.48213343  0.63808373  0.03050437    -0.05700
C986        C  0.01722400  0.65662178  0.02337026    -0.33100
C987        C  0.02665596  0.66070453  0.49386182     0.36100
C988        C  0.50084748  0.64693750  0.47051454    -0.06100
C989        C  0.46580612  0.62936234  0.47766938    -0.33000
C990        C  0.45639065  0.62471119  0.00708764     0.36000
H991        H  0.03752184  0.66756128  0.04073034     0.16400
O992        O  0.06126720  0.67934422  0.48811551    -0.60500
H993        H  0.44546626  0.61872776  0.46033195     0.16400
O994        O  0.42168376  0.60721238  0.01261844    -0.60600
H995        H  0.41485766  0.62520176  0.01323638     0.43400
H996        H  0.06987697  0.66279127  0.49024815     0.43300
C997        C  0.43430069  0.70533740  0.12151463    -0.05700
C998        C  0.39924849  0.69428082  0.12513605    -0.33100
C999        C  0.38908717  0.71772256  0.13388797     0.36100
C1000       C  0.41384747  0.75346576  0.13750796    -0.06100
C1001       C  0.44919697  0.76396896  0.13677344    -0.33000
C1002       C  0.45958440  0.74016667  0.12894601     0.36000
H1003       H  0.37962753  0.66722665  0.12156291     0.16400
O1004       O  0.35435874  0.70585009  0.13680449    -0.60500
H1005       H  0.46864270  0.79087269  0.14053532     0.16400
O1006       O  0.49437588  0.75161700  0.12697392    -0.60600
H1007       H  0.50343483  0.75297101  0.14747855     0.43400
H1008       H  0.35038100  0.70002070  0.15775861     0.43300
C1009       C  0.38336363  0.92900897  0.11547773    -0.05700
C1010       C  0.35757481  0.93797778  0.10939526    -0.33100
C1011       C  0.36666836  0.97261301  0.10479022     0.36100
C1012       C  0.40197741  0.99861421  0.10553772    -0.06100
C1013       C  0.42748875  0.98885541  0.10904124    -0.33000
C1014       C  0.41851825  0.95474611  0.11475685     0.36000
H1015       H  0.33029710  0.91824572  0.10923760     0.16400
O1016       O  0.34100675  0.98101345  0.10195365    -0.60500
H1017       H  0.45483543  0.50836375  0.10920166     0.16400
O1018       O  0.44436547  0.94675160  0.11906690    -0.60600
H1019       H  0.45153317  0.95172394  0.14023070     0.43400
H1020       H  0.33383916  0.97754935  0.08075333     0.43300
C1021       C  0.26434341  0.54482783  0.16212674    -0.05700
C1022       C  0.27441695  0.51987485  0.15863109    -0.33100
C1023       C  0.30966156  0.52988820  0.15703206     0.36100
C1024       C  0.33509794  0.56531589  0.15760782    -0.06100
C1025       C  0.32513783  0.59005005  0.16271808    -0.33000
C1026       C  0.29019666  0.58004313  0.16551356     0.36000
H1027       H  0.25485321  0.99266632  0.15627087     0.16400
O1028       O  0.31855155  0.50507074  0.15222347    -0.60500
H1029       H  0.34441651  0.61742623  0.16325328     0.16400
O1030       O  0.28137320  0.60518529  0.16869606    -0.60600
H1031       H  0.28353397  0.61018484  0.19013674     0.43400
H1032       H  0.32345771  0.99900509  0.17204834     0.43300
C1033       C  0.04108880  0.59901673  0.15277116    -0.05700
C1034       C  0.07547428  0.62325758  0.14661379    -0.33100
C1035       C  0.10151980  0.61446596  0.14897106     0.36100
C1036       C  0.09297489  0.58071094  0.15654092    -0.06100
C1037       C  0.05901388  0.55702843  0.16408030    -0.33000
C1038       C  0.03314841  0.56610745  0.16262408     0.36000
H1039       H  0.08199168  0.64881355  0.13937052     0.16400
O1040       O  0.13445280  0.63796034  0.14121222    -0.60500
H1041       H  0.05215460  0.53086668  0.16971628     0.16400
O1042       O  0.99985664  0.54212236  0.16939803    -0.60600
H1043       H  0.99103113  0.52416997  0.15344000     0.43400
H1044       H  0.14660517  0.65151338  0.15950681     0.43300
O1045       O  0.38288501  0.60114166  0.63010907    -0.85600
O1046       O  0.42584963  0.65332886  0.59767681    -0.82600
C1047       C  0.44416758  0.67901598  0.61534601     0.97900
O1048       O  0.47001785  0.68171245  0.62973922    -0.82700
O1049       O  0.49553924  0.65798285  0.67159112    -0.85300
C1050       C  0.47183207  0.64701235  0.69017573     1.02400
O1051       O  0.44282379  0.62039937  0.68421031    -0.78100
O1052       O  0.38776404  0.56308119  0.65586479    -0.78300
C1053       C  0.37051470  0.57728386  0.64798473     1.02300
O1054       O  0.39803517  0.55110923  0.60056830    -0.85600
O1055       O  0.44361582  0.60654723  0.56775818    -0.82700
C1056       C  0.47210856  0.63270222  0.56194566     0.97900
O1057       O  0.49122677  0.65433612  0.58236690    -0.82700
O1058       O  0.01378094  0.62484011  0.62577328    -0.85300
C1059       C  0.01355223  0.60772047  0.64774058     1.02400
O1060       O  0.48995126  0.59848779  0.66584635    -0.78100
O1061       O  0.43785161  0.55044704  0.63050939    -0.78300
C1062       C  0.41339880  0.53554640  0.61142306     1.02300
Cr1063     Cr  0.41508321  0.60362690  0.60075222     1.93700
Cr1064     Cr  0.48982302  0.65185103  0.62705523     1.93200
Cr1065     Cr  0.44021914  0.58538009  0.65699500     1.39100
O1066       O  0.44856062  0.61365669  0.62769192    -1.23300
O1067       O  0.37684846  0.76789582  0.61330547    -0.85600
O1068       O  0.32431995  0.75962711  0.57862579    -0.82600
C1069       C  0.30163022  0.74938710  0.59783434     0.97900
O1070       O  0.30202124  0.77046746  0.61654179    -0.82700
O1071       O  0.32816043  0.82889104  0.65361246    -0.85300
C1072       C  0.34414786  0.82288565  0.67440630     1.02400
O1073       O  0.36911444  0.81853475  0.66899225    -0.78100
O1074       O  0.41802305  0.81027392  0.64027824    -0.78300
C1075       C  0.40201703  0.77855163  0.63147562     1.02300
O1076       O  0.42775570  0.82911259  0.58432176    -0.85600
O1077       O  0.37028960  0.82488495  0.55266300    -0.82700
C1078       C  0.34015088  0.81940979  0.54606071     0.97900
O1079       O  0.31849839  0.81256737  0.56581701    -0.82700
O1080       O  0.34996687  0.86993167  0.60244327    -0.85300
C1081       C  0.37353152  0.89243155  0.61948459     1.02400
O1082       O  0.38874101  0.88383934  0.63931369    -0.78100
O1083       O  0.43246944  0.87320869  0.60902005    -0.78300
C1084       C  0.44563792  0.86064706  0.59301473     1.02300
Cr1085     Cr  0.37459648  0.79738874  0.58379459     1.93700
Cr1086     Cr  0.32722722  0.82042712  0.60976192     1.93200
Cr1087     Cr  0.39980308  0.84473908  0.63782511     1.39100
O1088       O  0.36727510  0.82109105  0.61042899    -1.23300
O1089       O  0.21603825  0.54974804  0.67538659    -0.85600
O1090       O  0.21278297  0.59532740  0.63828613    -0.82600
C1091       C  0.20276335  0.60797429  0.61830366     0.97900
O1092       O  0.17155154  0.59182362  0.60835584    -0.82700
O1093       O  0.17109357  0.53697222  0.58011009    -0.85300
C1094       C  0.16701922  0.50745359  0.57478384     1.02400
O1095       O  0.15733666  0.98511087  0.59464498    -0.78100
O1096       O  0.20731571  0.51223097  0.64011987    -0.78300
C1097       C  0.22722936  0.53475497  0.65926976     1.02300
O1098       O  0.14919272  0.53170166  0.69524252    -0.85600
O1099       O  0.14727873  0.58202053  0.66154996    -0.82700
C1100       C  0.11645691  0.56772166  0.65021624     0.97900
O1101       O  0.10601090  0.54365108  0.63121841    -0.82700
O1102       O  0.10174918  0.99150230  0.59680600    -0.85300
C1103       C  0.08753033  0.96540316  0.61277154     1.02400
O1104       O  0.10389667  0.96364857  0.63553382    -0.78100
O1105       O  0.15481984  0.98731871  0.68253784    -0.78300
C1106       C  0.14935667  0.00441080  0.70181557     1.02300
Cr1107     Cr  0.17954561  0.56230308  0.66548052     1.93700
Cr1108     Cr  0.13909184  0.54029474  0.60645886     1.93200
Cr1109     Cr  0.15594545  0.98998384  0.63835433     1.39100
O1110       O  0.15791569  0.53056176  0.63704883    -1.23300
O1111       O  0.26161408  0.81872295  0.82524788    -0.85600
O1112       O  0.26685315  0.86764316  0.86422124    -0.82600
C1113       C  0.27790308  0.89111913  0.88375736     0.97900
O1114       O  0.30938204  0.90576192  0.89303398    -0.82700
O1115       O  0.30929038  0.85047032  0.91927240    -0.85300
C1116       C  0.31297109  0.82477295  0.92400906     1.02400
O1117       O  0.32211386  0.81182858  0.90380164    -0.78100
O1118       O  0.27169451  0.78925689  0.85863851    -0.78300
C1119       C  0.25122239  0.79159772  0.84002277     1.02300
O1120       O  0.32811393  0.86793357  0.80461806    -0.85600
O1121       O  0.33185648  0.92003539  0.84008662    -0.82700
C1122       C  0.36299920  0.93654810  0.85091847     0.97900
O1123       O  0.37408334  0.92238114  0.86863594    -0.82700
O1124       O  0.37857876  0.87372963  0.90195485    -0.85300
C1125       C  0.39220900  0.86149825  0.88544518     1.02400
O1126       O  0.37529354  0.84394556  0.86253004    -0.78100
O1127       O  0.32397400  0.81818365  0.81591687    -0.78300
C1128       C  0.32883546  0.84109448  0.79729543     1.02300
Cr1129     Cr  0.29892001  0.86787541  0.83557255     1.93700
Cr1130     Cr  0.34130616  0.88585171  0.89339417     1.93200
Cr1131     Cr  0.32314414  0.81866884  0.86017432     1.39100
O1132       O  0.32145472  0.85742694  0.86267549    -1.23300
O1133       O  0.10686576  0.88158628  0.88555721    -0.85600
O1134       O  0.15869979  0.92627393  0.92078147    -0.82600
C1135       C  0.18150178  0.93824134  0.90165048     0.97900
O1136       O  0.18126591  0.95874048  0.88275947    -0.82700
O1137       O  0.15457509  0.99050776  0.84520455    -0.85300
C1138       C  0.13848328  0.96868006  0.82421650     1.02400
O1139       O  0.11397807  0.93907124  0.82953924    -0.78100
O1140       O  0.06545032  0.88147917  0.85816464    -0.78300
C1141       C  0.08165130  0.86625858  0.86749756     1.02300
O1142       O  0.05487813  0.89062012  0.91410785    -0.85600
O1143       O  0.11212071  0.94495502  0.94638099    -0.82700
C1144       C  0.14200577  0.97037900  0.95278516     0.97900
O1145       O  0.16373340  0.98486289  0.93304477    -0.82700
O1146       O  0.13201619  0.50961963  0.89599249    -0.85300
C1147       C  0.10809992  0.50788336  0.87906289     1.02400
O1148       O  0.09298421  0.98378203  0.85933920    -0.78100
O1149       O  0.04909337  0.92893346  0.88903075    -0.78300
C1150       C  0.03618324  0.90307829  0.90478411     1.02300
Cr1151     Cr  0.10827850  0.91306352  0.91511216     1.93700
Cr1152     Cr  0.15533076  0.98323028  0.88904894     1.93200
Cr1153     Cr  0.08278664  0.93398379  0.86066415     1.39100
O1154       O  0.11534177  0.94365857  0.88835014    -1.23300
O1155       O  0.09625948  0.70398854  0.86703853    -0.85600
O1156       O  0.05631140  0.71611797  0.90126336    -0.82600
C1157       C  0.03818035  0.72387897  0.88394746     0.97900
O1158       O  0.01082060  0.70074827  0.87098483    -0.82700
O1159       O  0.48117928  0.65002246  0.83019111    -0.85300
C1160       C  0.00393663  0.66197188  0.81083258     1.02400
O1161       O  0.03268099  0.66333113  0.81545280    -0.78100
O1162       O  0.08833874  0.65964666  0.84122634    -0.78300
C1163       C  0.10705288  0.69119182  0.84874182     1.02300
O1164       O  0.08008671  0.63910401  0.89726157    -0.85600
O1165       O  0.03827310  0.65273868  0.93234527    -0.82700
C1166       C  0.51023842  0.65102941  0.93894029     0.97900
O1167       O  0.49053424  0.65330511  0.91907934    -0.82700
O1168       O  0.46373563  0.59958129  0.87636626    -0.85300
C1169       C  0.46252614  0.58172348  0.85435433     1.02400
O1170       O  0.48520031  0.59525700  0.83536868    -0.78100
O1171       O  0.03852065  0.59842292  0.86834371    -0.78300
C1172       C  0.06362347  0.60790725  0.88674571     1.02300
Cr1173     Cr  0.06507088  0.67600846  0.89778843     1.93700
Cr1174     Cr  0.48938879  0.65080072  0.87441098     1.93200
Cr1175     Cr  0.03571785  0.63095627  0.84226201     1.39100
O1176       O  0.02985029  0.65231404  0.87216538    -1.23300
C1177       C  0.04939888  0.76030286  0.87708118    -0.05700
C1178       C  0.02478877  0.76930848  0.86632566    -0.33100
C1179       C  0.03504597  0.80353214  0.85889643     0.36100
C1180       C  0.07033174  0.82925077  0.86207741    -0.06100
C1181       C  0.09503520  0.81910108  0.86926827    -0.33000
C1182       C  0.08489248  0.78538068  0.87741188     0.36000
H1183       H  0.99735764  0.74997767  0.86453301     0.16400
O1184       O  0.01020830  0.81180580  0.85060703    -0.60500
H1185       H  0.12254787  0.83821254  0.87107679     0.16400
O1186       O  0.10985742  0.77757279  0.88673609    -0.60600
H1187       H  0.12378314  0.78044936  0.86950982     0.43400
H1188       H  0.51059476  0.81297676  0.82890250     0.43300
C1189       C  0.09736653  0.53396329  0.88309918    -0.05700
C1190       C  0.06188201  0.52296534  0.88291872    -0.33100
C1191       C  0.05069396  0.54662474  0.88786390     0.36100
C1192       C  0.07514179  0.58241181  0.89202270    -0.06100
C1193       C  0.11073235  0.59320945  0.89383274    -0.33000
C1194       C  0.12191421  0.56920044  0.88959888     0.36000
H1195       H  0.04267723  0.99581135  0.87912229     0.16400
O1196       O  0.01558516  0.53469694  0.88705932    -0.60500
H1197       H  0.12992853  0.62049537  0.89658703     0.16400
O1198       O  0.15691569  0.58067807  0.89062847    -0.60600
H1199       H  0.16406911  0.58701915  0.87024249     0.43400
H1200       H  0.00875760  0.52877555  0.90756828     0.43300
C1201       C  0.38586812  0.97362223  0.84593707    -0.05700
C1202       C  0.37611372  0.99735100  0.85538330    -0.33100
C1203       C  0.40062761  0.53286822  0.85787596     0.36100
C1204       C  0.43518440  0.54498222  0.85033633    -0.06100
C1205       C  0.44417896  0.52137721  0.83907541    -0.33000
C1206       C  0.42001454  0.98588332  0.83742156     0.36000
H1207       H  0.35003959  0.98813537  0.86248565     0.16400
O1208       O  0.39075077  0.55534616  0.86823989    -0.60500
H1209       H  0.47055249  0.53027765  0.83289274     0.16400
O1210       O  0.43010860  0.96320348  0.82795896    -0.60600
H1211       H  0.44255953  0.96012744  0.84517359     0.43400
H1212       H  0.38355814  0.56341948  0.85051270     0.43300
C1213       C  0.14270235  0.71303262  0.83872109    -0.05700
C1214       C  0.16815292  0.70407807  0.84564576    -0.33100
C1215       C  0.20373751  0.72884461  0.84469433     0.36100
C1216       C  0.21428156  0.76304425  0.83627285    -0.06100
C1217       C  0.18853685  0.77072960  0.82655547    -0.33000
C1218       C  0.15308846  0.74609118  0.82782593     0.36000
H1219       H  0.16055903  0.67865463  0.85392374     0.16400
O1220       O  0.22795288  0.71953105  0.85260848    -0.60500
H1221       H  0.19580129  0.79656331  0.81957910     0.16400
O1222       O  0.12870913  0.75512483  0.81978446    -0.60600
H1223       H  0.12424472  0.75006910  0.79836051     0.43400
H1224       H  0.22913139  0.72003289  0.87437072     0.43300
C1225       C  0.25483737  0.90360847  0.89325005    -0.05700
C1226       C  0.26611129  0.93906849  0.89201165    -0.33100
C1227       C  0.24263266  0.95094014  0.89523560     0.36100
C1228       C  0.20777726  0.92738245  0.90111962    -0.06100
C1229       C  0.19722313  0.89227418  0.90453352    -0.33000
C1230       C  0.22025966  0.88017989  0.89991747     0.36000
H1231       H  0.29264030  0.95733263  0.88679127     0.16400
O1232       O  0.25396315  0.98555658  0.89265700    -0.60500
H1233       H  0.17054332  0.87386953  0.90925280     0.16400
O1234       O  0.20878493  0.84544798  0.90183485    -0.60600
H1235       H  0.19631998  0.83493558  0.88268751     0.43400
H1236       H  0.25349324  0.98919377  0.87123674     0.43300
C1237       C  0.99816686  0.88616441  0.90809249    -0.05700
C1238       C  0.47593760  0.85649955  0.89062523    -0.33100
C1239       C  0.44126647  0.84758813  0.88328684     0.36100
C1240       C  0.42798650  0.86814214  0.89398462    -0.06100
C1241       C  0.44959743  0.89614912  0.91347091    -0.33000
C1242       C  0.48431259  0.90538756  0.92018174     0.36000
H1243       H  0.98627367  0.84180942  0.88066653     0.16400
O1244       O  0.42088948  0.81910519  0.86532249    -0.60500
H1245       H  0.44017163  0.91225676  0.92238421     0.16400
O1246       O  0.50536829  0.93503685  0.93666409    -0.60600
H1247       H  0.50662023  0.92705973  0.95668845     0.43400
H1248       H  0.42685460  0.82727798  0.84507549     0.43300
C1249       C  0.14671450  0.99459556  0.73297448    -0.05700
C1250       C  0.15946775  0.52083485  0.75501056    -0.33100
C1251       C  0.15913920  0.01309227  0.78473919     0.36100
C1252       C  0.14511385  0.97841627  0.79309295    -0.06100
C1253       C  0.13279481  0.95221077  0.77098719    -0.33000
C1254       C  0.13389764  0.96010260  0.74119496     0.36000
H1255       H  0.17007701  0.54766671  0.74917977     0.16400
O1256       O  0.17078293  0.53948801  0.80539726    -0.60500
H1257       H  0.12159591  0.92531899  0.77681560     0.16400
O1258       O  0.12081498  0.93372620  0.72039766    -0.60600
H1259       H  0.14018469  0.92934639  0.71703115     0.43400
H1260       H  0.19603901  0.54807869  0.80857301     0.43300
C1261       C  0.15260581  0.98033307  0.98382159    -0.05700
C1262       C  0.13928645  0.95430714  0.00459251    -0.33100
C1263       C  0.14698499  0.96242629  0.53446034     0.36100
C1264       C  0.16755851  0.99734820  0.54409959    -0.06100
C1265       C  0.18295218  0.52316214  0.52317111    -0.33000
C1266       C  0.17583317  0.51479025  0.99313602     0.36000
H1267       H  0.12227488  0.92745678  0.99766333     0.16400
O1268       O  0.13178062  0.93623022  0.55395555    -0.60500
H1269       H  0.19912304  0.55011647  0.53011609     0.16400
O1270       O  0.19036920  0.54062403  0.97324376    -0.60600
H1271       H  0.17299028  0.54803718  0.96940043     0.43400
H1272       H  0.14888112  0.92847171  0.55780006     0.43300
C1273       C  0.32931366  0.81686294  0.51491027    -0.05700
C1274       C  0.34561278  0.80678537  0.49457591    -0.33100
C1275       C  0.33755816  0.80541730  0.96463923     0.36100
C1276       C  0.31310203  0.81471822  0.95454220    -0.06100
C1277       C  0.29498975  0.82245405  0.97497010    -0.33000
C1278       C  0.30290829  0.82350483  0.50506057     0.36000
H1279       H  0.36540606  0.80070143  0.50183942     0.16400
O1280       O  0.35644316  0.79855049  0.94547570    -0.60500
H1281       H  0.27618537  0.82978933  0.96750899     0.16400
O1282       O  0.28601124  0.83275871  0.52442559    -0.60600
H1283       H  0.30045955  0.85831888  0.52682124     0.43400
H1284       H  0.34369435  0.77297992  0.94275180     0.43300
C1285       C  0.33238645  0.83539175  0.76598159    -0.05700
C1286       C  0.31960071  0.84928601  0.74450857    -0.33100
C1287       C  0.32155782  0.84395733  0.71458346     0.36100
C1288       C  0.33665427  0.82449220  0.70552413    -0.06100
C1289       C  0.34902694  0.81020423  0.72704689    -0.33000
C1290       C  0.34676625  0.81531031  0.75700844     0.36000
H1291       H  0.30791243  0.86438901  0.75092936     0.16400
O1292       O  0.30959779  0.85884067  0.69450282    -0.60500
H1293       H  0.36119594  0.79554738  0.72065577     0.16400
O1294       O  0.36033256  0.80210430  0.77727784    -0.60600
H1295       H  0.34175996  0.77770029  0.77948120     0.43400
H1296       H  0.32988668  0.88202139  0.69118041     0.43300
C1297       C  0.27490445  0.71263799  0.59870260    -0.05700
C1298       C  0.28460248  0.68734310  0.59608200    -0.33100
C1299       C  0.26098648  0.65271625  0.60170234     0.36100
C1300       C  0.22677735  0.64293893  0.60859069    -0.06100
C1301       C  0.21637550  0.66777299  0.60886786    -0.33000
C1302       C  0.24041945  0.70262695  0.60477379     0.36000
H1303       H  0.31101728  0.69472961  0.59118741     0.16400
O1304       O  0.27183462  0.62888174  0.60128349    -0.60500
H1305       H  0.19007763  0.66047034  0.61388735     0.16400
O1306       O  0.23002761  0.72672851  0.60673971    -0.60600
H1307       H  0.23052331  0.73150125  0.62807515     0.43400
H1308       H  0.26296376  0.61638645  0.58202216     0.43300
C1309       C  0.05204724  0.93683081  0.60350941    -0.05700
C1310       C  0.04124218  0.90244535  0.61068444    -0.33100
C1311       C  0.00730603  0.87560889  0.60287771     0.36100
C1312       C  0.48315858  0.88301460  0.58866562    -0.06100
C1313       C  0.49465630  0.91694749  0.57981394    -0.33000
C1314       C  0.02877894  0.94358273  0.58665059     0.36000
H1315       H  0.05890463  0.89642986  0.62285548     0.16400
O1316       O  0.49704333  0.84281940  0.61182599    -0.62900
H1317       H  0.47629202  0.92335950  0.56946044     0.16400
O1318       O  0.03807678  0.97666254  0.57888247    -0.60600
H1319       H  0.04468985  0.97827090  0.55820964     0.43400
H1320       H  0.00059828  0.83110953  0.59491569     0.43300
C1321       C  0.49566223  0.66956290  0.78112172    -0.05700
C1322       C  0.46084236  0.65396918  0.77075743    -0.33100
C1323       C  0.45240937  0.64984107  0.74058481     0.36100
C1324       C  0.47918800  0.66159348  0.72047977    -0.06100
C1325       C  0.01384023  0.68217347  0.73100265    -0.33000
C1326       C  0.02219665  0.68644700  0.76112907     0.36000
H1327       H  0.44003013  0.64194519  0.78580273     0.16400
O1328       O  0.41795610  0.63236017  0.73104765    -0.60500
H1329       H  0.03477985  0.69240373  0.71600432     0.16400
O1330       O  0.05660835  0.70441017  0.77060643    -0.60600
H1331       H  0.06097679  0.72759583  0.77692694     0.43400
H1332       H  0.40949967  0.60761996  0.73499514     0.43300
C1333       C  0.48213406  0.63808442  0.53050453    -0.05700
C1334       C  0.01722450  0.65662604  0.52337032    -0.33100
C1335       C  0.02665544  0.66069982  0.99386179     0.36100
C1336       C  0.50084700  0.64693634  0.97051446    -0.06100
C1337       C  0.46580558  0.62936344  0.97766926    -0.33000
C1338       C  0.45639129  0.62470985  0.50708775     0.36000
H1339       H  0.03752230  0.66756828  0.54073031     0.16400
O1340       O  0.06126693  0.67933567  0.98811566    -0.60500
H1341       H  0.44546577  0.61873058  0.96033184     0.16400
O1342       O  0.42168440  0.60720867  0.51261857    -0.60600
H1343       H  0.41485623  0.62519607  0.51323563     0.43400
H1344       H  0.06987332  0.66278019  0.99024803     0.43300
C1345       C  0.43430067  0.70533766  0.62151370    -0.05700
C1346       C  0.39924837  0.69428082  0.62513481    -0.33100
C1347       C  0.38908666  0.71772230  0.63388669     0.36100
C1348       C  0.41384680  0.75346553  0.63750710    -0.06100
C1349       C  0.44919638  0.76396903  0.63677264    -0.33000
C1350       C  0.45958416  0.74016700  0.62894517     0.36000
H1351       H  0.37962758  0.66722659  0.62156158     0.16400
O1352       O  0.35435818  0.70584952  0.63680303    -0.60500
H1353       H  0.46864196  0.79087278  0.64053466     0.16400
O1354       O  0.49437568  0.75161759  0.62697330    -0.60600
H1355       H  0.50343467  0.75297163  0.64747858     0.43400
H1356       H  0.35037996  0.70001844  0.65775717     0.43300
C1357       C  0.38336293  0.92900898  0.61547790    -0.05700
C1358       C  0.35757411  0.93797775  0.60939534    -0.33100
C1359       C  0.36666766  0.97261294  0.60478998     0.36100
C1360       C  0.40197670  0.99861412  0.60553734    -0.06100
C1361       C  0.42748803  0.98885533  0.60904095    -0.33000
C1362       C  0.41851754  0.95474608  0.61475677     0.36000
H1363       H  0.33029639  0.91824573  0.60923782     0.16400
O1364       O  0.34100607  0.98101340  0.60195330    -0.60500
H1365       H  0.45483494  0.50836360  0.60920171     0.16400
O1366       O  0.44436475  0.94675156  0.61906682    -0.60600
H1367       H  0.45153259  0.95172413  0.64023036     0.43400
H1368       H  0.33383732  0.97754757  0.58075335     0.43300
C1369       C  0.26434325  0.54482891  0.66212570    -0.05700
C1370       C  0.27441677  0.51987585  0.65863080    -0.33100
C1371       C  0.30966133  0.52988914  0.65703172     0.36100
C1372       C  0.33509768  0.56531678  0.65760675    -0.06100
C1373       C  0.32513758  0.59005112  0.66271615    -0.33000
C1374       C  0.29019644  0.58004430  0.66551155     0.36000
H1375       H  0.25485268  0.99266654  0.65626999     0.16400
O1376       O  0.31855127  0.50507148  0.65222386    -0.60500
H1377       H  0.34441625  0.61742729  0.66325075     0.16400
O1378       O  0.28137292  0.60518651  0.66869312    -0.60600
H1379       H  0.28353453  0.61018738  0.69013376     0.43400
H1380       H  0.32345724  0.99900530  0.67204735     0.43300
C1381       C  0.04108827  0.59901689  0.65277192    -0.05700
C1382       C  0.07547357  0.62325751  0.64661389    -0.33100
C1383       C  0.10151904  0.61446583  0.64897083     0.36100
C1384       C  0.09297422  0.58071097  0.65654114    -0.06100
C1385       C  0.05901344  0.55702871  0.66408126    -0.33000
C1386       C  0.03314804  0.56610784  0.66262533     0.36000
H1387       H  0.08199086  0.64881332  0.63937025     0.16400
O1388       O  0.13445177  0.63795992  0.64121125    -0.60500
H1389       H  0.05215422  0.53086711  0.66971760     0.16400
O1390       O  0.99985647  0.54212293  0.66940005    -0.60600
H1391       H  0.99103001  0.52417138  0.65344183     0.43400
H1392       H  0.14660493  0.65151330  0.65950585     0.43300
O1393       O  0.88288518  0.10114151  0.13010981    -0.85600
O1394       O  0.92584923  0.15332857  0.09767729    -0.82600
C1395       C  0.94416756  0.17901582  0.11534626     0.97900
O1396       O  0.97001823  0.18171253  0.12973893    -0.82700
O1397       O  0.99554019  0.15798344  0.17159069    -0.85300
C1398       C  0.97183328  0.14701326  0.19017555     1.02400
O1399       O  0.94282494  0.12040017  0.18421053    -0.78100
O1400       O  0.88776466  0.06308134  0.15586557    -0.78300
C1401       C  0.87051504  0.07728371  0.14798547     1.02300
O1402       O  0.89803543  0.05110921  0.10056872    -0.85600
O1403       O  0.94361513  0.10654695  0.06775811    -0.82700
C1404       C  0.97210801  0.13270169  0.06194539     0.97900
O1405       O  0.99122643  0.15433567  0.08236648    -0.82700
O1406       O  0.51378133  0.12484023  0.12577272    -0.85300
C1407       C  0.51355288  0.10772079  0.14774010     1.02400
O1408       O  0.98995210  0.09848833  0.16584629    -0.78100
O1409       O  0.93785192  0.05044712  0.13050988    -0.78300
C1410       C  0.91339912  0.03554647  0.11142353     1.02300
Cr1411     Cr  0.91508310  0.10362675  0.10075261     1.93700
Cr1412     Cr  0.98982330  0.15185105  0.12705485     1.93200
Cr1413     Cr  0.94021984  0.08538050  0.15699533     1.39100
O1414       O  0.94856090  0.11365676  0.12769201    -1.23300
O1415       O  0.87684934  0.26789589  0.11330525    -0.85600
O1416       O  0.82432064  0.25962694  0.07862568    -0.82600
C1417       C  0.80163107  0.24938687  0.09783439     0.97900
O1418       O  0.80202211  0.27046729  0.11654183    -0.82700
O1419       O  0.82816132  0.32889111  0.15361245    -0.85300
C1420       C  0.84414892  0.32288598  0.17440630     1.02400
O1421       O  0.86911552  0.31853513  0.16899223    -0.78100
O1422       O  0.91802379  0.31027404  0.14027813    -0.78300
C1423       C  0.90201768  0.27855171  0.13147568     1.02300
O1424       O  0.92775635  0.32911243  0.08432140    -0.85600
O1425       O  0.87029009  0.32488479  0.05266272    -0.82700
C1426       C  0.84015132  0.31940965  0.04606064     0.97900
O1427       O  0.81849896  0.31256718  0.06581707    -0.82700
O1428       O  0.84996734  0.36993154  0.10244317    -0.85300
C1429       C  0.87353219  0.39243152  0.11948429     1.02400
O1430       O  0.88874183  0.38383943  0.13931333    -0.78100
O1431       O  0.93247009  0.37320862  0.10901954    -0.78300
C1432       C  0.94563861  0.36064691  0.09301436     1.02300
Cr1433     Cr  0.87459716  0.29738869  0.08379434     1.93700
Cr1434     Cr  0.82722790  0.32042700  0.10976191     1.93200
Cr1435     Cr  0.89980390  0.34473921  0.13782483     1.39100
O1436       O  0.86727583  0.32109103  0.11042881    -1.23300
O1437       O  0.71603818  0.04974711  0.17538708    -0.85600
O1438       O  0.71278372  0.09532687  0.13828645    -0.82600
C1439       C  0.70276436  0.10797383  0.11830384     0.97900
O1440       O  0.67155268  0.09182323  0.10835573    -0.82700
O1441       O  0.67109458  0.03697161  0.08011024    -0.85300
C1442       C  0.66701999  0.00745287  0.07478401     1.02400
O1443       O  0.65733719  0.48511094  0.09464529    -0.78100
O1444       O  0.70731579  0.01223004  0.14012042    -0.78300
C1445       C  0.72722937  0.03475400  0.15927036     1.02300
O1446       O  0.64919239  0.03170121  0.19524224    -0.85600
O1447       O  0.64727928  0.08202036  0.16154960    -0.82700
C1448       C  0.61645754  0.06772161  0.15021568     0.97900
O1449       O  0.60601162  0.04365101  0.13121788    -0.82700
O1450       O  0.60174972  0.49150262  0.09680635    -0.85300
C1451       C  0.58753087  0.46540333  0.11277175     1.02400
O1452       O  0.60389716  0.46364868  0.13553404    -0.78100
O1453       O  0.65482026  0.48731863  0.18253811    -0.78300
C1454       C  0.64935715  0.50441078  0.20181581     1.02300
Cr1455     Cr  0.67954587  0.06230256  0.16548058     1.93700
Cr1456     Cr  0.63909270  0.04029442  0.10645867     1.93200
Cr1457     Cr  0.65594596  0.48998388  0.13835464     1.39100
O1458       O  0.65791608  0.03056127  0.13704884    -1.23300
O1459       O  0.76161422  0.31872296  0.32524795    -0.85600
O1460       O  0.76685321  0.36764316  0.36422131    -0.82600
C1461       C  0.77790310  0.39111909  0.38375749     0.97900
O1462       O  0.80938207  0.40576193  0.39303406    -0.82700
O1463       O  0.80929058  0.35047034  0.41927226    -0.85300
C1464       C  0.81297157  0.32477314  0.42400893     1.02400
O1465       O  0.82211443  0.31182886  0.40380151    -0.78100
O1466       O  0.77169498  0.28925716  0.35863859    -0.78300
C1467       C  0.75122273  0.29159776  0.34002286     1.02300
O1468       O  0.82811401  0.36793376  0.30461798    -0.85600
O1469       O  0.83185646  0.42003551  0.34008660    -0.82700
C1470       C  0.86299919  0.43654840  0.35091846     0.97900
O1471       O  0.87408348  0.42238156  0.36863589    -0.82700
O1472       O  0.87857899  0.37372985  0.40195457    -0.85300
C1473       C  0.89220932  0.36149863  0.38544484     1.02400
O1474       O  0.87529389  0.34394589  0.36252972    -0.78100
O1475       O  0.82397435  0.31818395  0.31591676    -0.78300
C1476       C  0.82883577  0.34109478  0.29729534     1.02300
Cr1477     Cr  0.79892009  0.36787549  0.33557256     1.93700
Cr1478     Cr  0.84130634  0.38585189  0.39339408     1.93200
Cr1479     Cr  0.82314454  0.31866911  0.36017420     1.39100
O1480       O  0.82145496  0.35742713  0.36267541    -1.23300
O1481       O  0.60686588  0.38158652  0.38555708    -0.85600
O1482       O  0.65869983  0.42627405  0.42078162    -0.82600
C1483       C  0.68150195  0.43824153  0.40165076     0.97900
O1484       O  0.68126631  0.45874086  0.38275982    -0.82700
O1485       O  0.65457557  0.49050813  0.34520478    -0.85300
C1486       C  0.63848369  0.46868046  0.32421671     1.02400
O1487       O  0.61397823  0.43907177  0.32953937    -0.78100
O1488       O  0.56545056  0.38147977  0.35816455    -0.78300
C1489       C  0.58165154  0.36625909  0.36749725     1.02300
O1490       O  0.55487827  0.39062031  0.41410772    -0.85600
O1491       O  0.61212071  0.44495519  0.44638093    -0.82700
C1492       C  0.64200570  0.47037926  0.45278521     0.97900
O1493       O  0.66373352  0.48486314  0.43304499    -0.82700
O1494       O  0.63201617  0.00961981  0.39599266    -0.85300
C1495       C  0.60809977  0.00788362  0.37906330     1.02400
O1496       O  0.59298453  0.48378255  0.35933949    -0.78100
O1497       O  0.54909382  0.42893407  0.38903106    -0.78300
C1498       C  0.53618355  0.40307875  0.40478421     1.02300
Cr1499     Cr  0.60827861  0.41306371  0.41511214     1.93700
Cr1500     Cr  0.65533108  0.48323064  0.38904919     1.93200
Cr1501     Cr  0.58278693  0.43398434  0.36066432     1.39100
O1502       O  0.61534206  0.44365891  0.38835025    -1.23300
O1503       O  0.59626010  0.20398887  0.36703818    -0.85600
O1504       O  0.55631237  0.21611908  0.40126268    -0.82600
C1505       C  0.53818101  0.22387975  0.38394687     0.97900
O1506       O  0.51082108  0.20074883  0.37098461    -0.82700
O1507       O  0.98118034  0.15002306  0.33019081    -0.85300
C1508       C  0.50393773  0.16197225  0.31083231     1.02400
O1509       O  0.53268190  0.16333111  0.31545266    -0.78100
O1510       O  0.58833936  0.15964654  0.34122671    -0.78300
C1511       C  0.60705348  0.19119179  0.34874182     1.02300
O1512       O  0.58008727  0.13910477  0.39726199    -0.85600
O1513       O  0.53827405  0.15274030  0.43234541    -0.82700
C1514       C  0.01023902  0.15103035  0.43894025     0.97900
O1515       O  0.99053465  0.15330548  0.41907915    -0.82700
O1516       O  0.96373615  0.09958177  0.37636613    -0.85300
C1517       C  0.96252668  0.08172385  0.35435428     1.02400
O1518       O  0.98520099  0.09525724  0.33536879    -0.78100
O1519       O  0.53852109  0.09842338  0.36834438    -0.78300
C1520       C  0.56362394  0.10790788  0.38674638     1.02300
Cr1521     Cr  0.56507163  0.17600937  0.39778832     1.93700
Cr1522     Cr  0.98938944  0.15080122  0.37441080     1.93200
Cr1523     Cr  0.53571851  0.13095648  0.34226226     1.39100
O1524       O  0.52985095  0.15231460  0.37216539    -1.23300
C1525       C  0.54939941  0.26030355  0.37708023    -0.05700
C1526       C  0.52478913  0.26930917  0.36632526    -0.33100
C1527       C  0.53504622  0.30353278  0.35889595     0.36100
C1528       C  0.57033205  0.32925142  0.36207656    -0.06100
C1529       C  0.59503563  0.31910169  0.36926668    -0.33000
C1530       C  0.58489305  0.28538125  0.37741014     0.36000
H1531       H  0.49735794  0.24997843  0.36453311     0.16400
O1532       O  0.51020843  0.31180641  0.35060691    -0.60500
H1533       H  0.62254838  0.33821315  0.37107475     0.16400
O1534       O  0.60985808  0.27757315  0.38673338    -0.60600
H1535       H  0.62378298  0.28044917  0.36950630     0.43400
H1536       H  0.01059477  0.31297740  0.32890185     0.43300
C1537       C  0.59736657  0.03396368  0.38309980    -0.05700
C1538       C  0.56188210  0.02296582  0.38292015    -0.33100
C1539       C  0.55069424  0.04662536  0.38786547     0.36100
C1540       C  0.57514223  0.08241247  0.39202365    -0.06100
C1541       C  0.61073279  0.09321005  0.39383304    -0.33000
C1542       C  0.62191445  0.06920092  0.38959895     0.36000
H1543       H  0.54267731  0.49581161  0.37912243     0.16400
O1544       O  0.51558548  0.03469768  0.38706140    -0.60500
H1545       H  0.62992905  0.12049600  0.39658686     0.16400
O1546       O  0.65691592  0.08067847  0.39062770    -0.60600
H1547       H  0.66406862  0.08701916  0.37024167     0.43400
H1548       H  0.50875818  0.02877597  0.40757047     0.43300
C1549       C  0.88586786  0.47362259  0.34593710    -0.05700
C1550       C  0.87611386  0.49735123  0.35538453    -0.33100
C1551       C  0.90062821  0.03286861  0.35787648     0.36100
C1552       C  0.93518479  0.04498260  0.35033626    -0.06100
C1553       C  0.94417904  0.02137760  0.33907474    -0.33000
C1554       C  0.92001381  0.48588380  0.33742032     0.36000
H1555       H  0.85004012  0.48813552  0.36248777     0.16400
O1556       O  0.89075170  0.05534653  0.36824109    -0.60500
H1557       H  0.97055245  0.03027804  0.33289169     0.16400
O1558       O  0.93010730  0.46320405  0.32795624    -0.60600
H1559       H  0.94255886  0.46012757  0.34517001     0.43400
H1560       H  0.88355815  0.06341957  0.35051418     0.43300
C1561       C  0.64270295  0.21303225  0.33872111    -0.05700
C1562       C  0.66815360  0.20407822  0.34564719    -0.33100
C1563       C  0.70373814  0.22884480  0.34469579     0.36100
C1564       C  0.71428206  0.26304401  0.33627294    -0.06100
C1565       C  0.68853727  0.27072868  0.32655421    -0.33000
C1566       C  0.65308891  0.24609019  0.32782459     0.36000
H1567       H  0.66055973  0.17865524  0.35392623     0.16400
O1568       O  0.72795355  0.21953180  0.35261133    -0.60500
H1569       H  0.69580162  0.29656204  0.31957680     0.16400
O1570       O  0.62870946  0.25512327  0.31978193    -0.60600
H1571       H  0.62424704  0.25006885  0.29835763     0.43400
H1572       H  0.72913153  0.22003447  0.37437426     0.43300
C1573       C  0.75483730  0.40360831  0.39325029    -0.05700
C1574       C  0.76611153  0.43906845  0.39201282    -0.33100
C1575       C  0.74263299  0.45094020  0.39523681     0.36100
C1576       C  0.70777732  0.42738248  0.40111994    -0.06100
C1577       C  0.69722281  0.39227401  0.40453300    -0.33000
C1578       C  0.72025934  0.38017969  0.39991694     0.36000
H1579       H  0.79264080  0.45733269  0.38679309     0.16400
O1580       O  0.75396385  0.48555683  0.39265904    -0.60500
H1581       H  0.67054283  0.37386934  0.40925168     0.16400
O1582       O  0.70878429  0.34544762  0.40183360    -0.60600
H1583       H  0.69631969  0.33493599  0.38268655     0.43400
H1584       H  0.75349486  0.48919482  0.37123924     0.43300
C1585       C  0.49816717  0.38616488  0.40809244    -0.05700
C1586       C  0.97593819  0.35650044  0.39062485    -0.33100
C1587       C  0.94126709  0.34758898  0.38328627     0.36100
C1588       C  0.92798689  0.36814269  0.39398426    -0.06100
C1589       C  0.94959758  0.39614950  0.41347078    -0.33000
C1590       C  0.98431278  0.40538803  0.42018174     0.36000
H1591       H  0.48627412  0.34181004  0.38066637     0.16400
O1592       O  0.92089036  0.31910633  0.36532154    -0.60500
H1593       H  0.94017159  0.41225689  0.42238425     0.16400
O1594       O  0.00536828  0.43503691  0.43666450    -0.60600
H1595       H  0.00660665  0.42705972  0.45669263     0.43400
H1596       H  0.92685568  0.32727960  0.34507453     0.43300
C1597       C  0.64671509  0.49459569  0.23297472    -0.05700
C1598       C  0.65946736  0.02083446  0.25501028    -0.33100
C1599       C  0.65914072  0.51309259  0.28473934     0.36100
C1600       C  0.64511444  0.47841653  0.29309316    -0.06100
C1601       C  0.63279467  0.45221089  0.27098745    -0.33000
C1602       C  0.63389751  0.46010268  0.24119523     0.36000
H1603       H  0.67007748  0.04766633  0.24917940     0.16400
O1604       O  0.67078335  0.03948788  0.30539691    -0.60500
H1605       H  0.62159517  0.42531907  0.27681587     0.16400
O1606       O  0.62081399  0.43372620  0.22039795    -0.60600
H1607       H  0.64018273  0.42934538  0.21703158     0.43400
H1608       H  0.69603937  0.04807751  0.30857284     0.43300
C1609       C  0.65260540  0.48033345  0.48382161    -0.05700
C1610       C  0.63928580  0.45430754  0.50459256    -0.33100
C1611       C  0.64698448  0.46242627  0.03446053     0.36100
C1612       C  0.66755861  0.49734813  0.04409981    -0.06100
C1613       C  0.68295269  0.02316130  0.02317121    -0.33000
C1614       C  0.67583276  0.01479079  0.49313571     0.36000
H1615       H  0.62227418  0.42745721  0.49766344     0.16400
O1616       O  0.63177998  0.43623026  0.05395572    -0.60500
H1617       H  0.69912361  0.05011563  0.03011615     0.16400
O1618       O  0.69036798  0.04062462  0.47324341    -0.60600
H1619       H  0.67298886  0.04803752  0.46940070     0.43400
H1620       H  0.64888065  0.42847159  0.05780030     0.43300
C1621       C  0.82931380  0.31686270  0.01491032    -0.05700
C1622       C  0.84561182  0.30678390  0.99457590    -0.33100
C1623       C  0.83755992  0.30541907  0.46463925     0.36100
C1624       C  0.81310274  0.31471854  0.45454206    -0.06100
C1625       C  0.79498941  0.32245310  0.47496980    -0.33000
C1626       C  0.80290918  0.32350575  0.00506082     0.36000
H1627       H  0.86540447  0.30069904  0.00183934     0.16400
O1628       O  0.85644588  0.29855349  0.44547584    -0.60500
H1629       H  0.77618426  0.32978734  0.46750849     0.16400
O1630       O  0.78601342  0.33276115  0.02442594    -0.60600
H1631       H  0.80046260  0.35832125  0.02682113     0.43400
H1632       H  0.84369852  0.27298262  0.44275265     0.43300
C1633       C  0.83238703  0.33539216  0.26598153    -0.05700
C1634       C  0.81960113  0.34928612  0.24450839    -0.33100
C1635       C  0.82155845  0.34395746  0.21458329     0.36100
C1636       C  0.83665538  0.32449269  0.20552413    -0.06100
C1637       C  0.84902845  0.31020524  0.22704701    -0.33000
C1638       C  0.84676743  0.31531119  0.25700851     0.36000
H1639       H  0.80791253  0.36438886  0.25092907     0.16400
O1640       O  0.80959816  0.35884041  0.19450256    -0.60500
H1641       H  0.86119794  0.29554880  0.22065602     0.16400
O1642       O  0.86033388  0.30210542  0.27727801    -0.60600
H1643       H  0.84176175  0.27770154  0.27948118     0.43400
H1644       H  0.82988739  0.38202198  0.19118022     0.43300
C1645       C  0.77490543  0.21263768  0.09870285    -0.05700
C1646       C  0.78460350  0.18734282  0.09608229    -0.33100
C1647       C  0.76098755  0.15271596  0.10170269     0.36100
C1648       C  0.72677843  0.14293858  0.10859112    -0.06100
C1649       C  0.71637656  0.16777261  0.10886839    -0.33000
C1650       C  0.74042042  0.20262656  0.10477416     0.36000
H1651       H  0.81101829  0.19472934  0.09118760     0.16400
O1652       O  0.77183576  0.12888150  0.10128382    -0.60500
H1653       H  0.69007864  0.16046989  0.11388796     0.16400
O1654       O  0.73002855  0.22672809  0.10674004    -0.60600
H1655       H  0.73052445  0.23150097  0.12807537     0.43400
H1656       H  0.76296401  0.11638547  0.08202271     0.43300
C1657       C  0.55204789  0.43683085  0.10350937    -0.05700
C1658       C  0.54124263  0.40244555  0.11068520    -0.33100
C1659       C  0.50730656  0.37560902  0.10287844     0.36100
C1660       C  0.98315934  0.38301424  0.08866547    -0.06100
C1661       C  0.99465730  0.41694691  0.07981297    -0.33000
C1662       C  0.52877987  0.44358238  0.08664963     0.36000
H1663       H  0.55890483  0.39643032  0.12285695     0.16400
O1664       O  0.99704356  0.34281970  0.11182798    -0.62900
H1665       H  0.97629320  0.42335871  0.06945875     0.16400
O1666       O  0.53807785  0.47666200  0.07888085    -0.60600
H1667       H  0.54469113  0.47826985  0.05820757     0.43400
H1668       H  0.50059863  0.33110958  0.09491823     0.43300
C1669       C  0.99566384  0.16956357  0.28112142    -0.05700
C1670       C  0.96084405  0.15397118  0.27075712    -0.33100
C1671       C  0.95241110  0.14984352  0.24058446     0.36100
C1672       C  0.97918968  0.16159486  0.22047945    -0.06100
C1673       C  0.51384199  0.18217375  0.23100234    -0.33000
C1674       C  0.52219833  0.18644712  0.26112880     0.36000
H1675       H  0.94003174  0.14194798  0.28580244     0.16400
O1676       O  0.91795782  0.13236416  0.23104717    -0.60500
H1677       H  0.53478161  0.19240337  0.21600405     0.16400
O1678       O  0.55661003  0.20440947  0.27060623    -0.60600
H1679       H  0.56097990  0.22759640  0.27692432     0.43400
H1680       H  0.90950006  0.10762394  0.23499476     0.43300
C1681       C  0.98213344  0.13808348  0.03050420    -0.05700
C1682       C  0.51722390  0.15662593  0.02336999    -0.33100
C1683       C  0.52665566  0.16070287  0.49386171     0.36100
C1684       C  0.00084740  0.14693716  0.47051435    -0.06100
C1685       C  0.96580595  0.12936291  0.47766902    -0.33000
C1686       C  0.95639082  0.12470791  0.00708736     0.36000
H1687       H  0.53752168  0.16756865  0.04073004     0.16400
O1688       O  0.56126709  0.17934162  0.48811569    -0.60500
H1689       H  0.94546620  0.11872919  0.46033149     0.16400
O1690       O  0.92168389  0.10720568  0.01261801    -0.60600
H1691       H  0.91485493  0.12519245  0.01323526     0.43400
H1692       H  0.56987573  0.16278841  0.49024803     0.43300
C1693       C  0.93430073  0.20533748  0.12151424    -0.05700
C1694       C  0.89924846  0.19428073  0.12513542    -0.33100
C1695       C  0.88908694  0.21772231  0.13388734     0.36100
C1696       C  0.91384718  0.25346552  0.13750769    -0.06100
C1697       C  0.94919669  0.26396884  0.13677340    -0.33000
C1698       C  0.95958434  0.24016675  0.12894585     0.36000
H1699       H  0.87962760  0.16722656  0.12156214     0.16400
O1700       O  0.85435843  0.20584962  0.13680363    -0.60500
H1701       H  0.96864240  0.29087261  0.14053552     0.16400
O1702       O  0.99437582  0.25161724  0.12697387    -0.60600
H1703       H  0.00343471  0.25297059  0.14747896     0.43400
H1704       H  0.85038127  0.20002334  0.15775818     0.43300
C1705       C  0.88336364  0.42900896  0.11547752    -0.05700
C1706       C  0.85757484  0.43797774  0.10939483    -0.33100
C1707       C  0.86666841  0.47261295  0.10478960     0.36100
C1708       C  0.90197742  0.49861415  0.10553713    -0.06100
C1709       C  0.92748876  0.48885537  0.10904079    -0.33000
C1710       C  0.91851827  0.45474610  0.11475663     0.36000
H1711       H  0.83029711  0.41824568  0.10923719     0.16400
O1712       O  0.84100681  0.48101342  0.10195292    -0.60500
H1713       H  0.95483548  0.00836394  0.10920211     0.16400
O1714       O  0.94436551  0.44675166  0.11906690    -0.60600
H1715       H  0.95153321  0.45172421  0.14023068     0.43400
H1716       H  0.83383857  0.47754827  0.08075324     0.43300
C1717       C  0.76434331  0.04482798  0.16212642    -0.05700
C1718       C  0.77441703  0.01987507  0.15863135    -0.33100
C1719       C  0.80966168  0.02988861  0.15703225     0.36100
C1720       C  0.83509790  0.06531630  0.15760749    -0.06100
C1721       C  0.82513757  0.09005043  0.16271712    -0.33000
C1722       C  0.79019637  0.08004338  0.16551255     0.36000
H1723       H  0.75485298  0.49266613  0.15627017     0.16400
O1724       O  0.81855182  0.00507111  0.15222420    -0.60500
H1725       H  0.84441611  0.11742661  0.16325193     0.16400
O1726       O  0.78137270  0.10518541  0.16869449    -0.60600
H1727       H  0.78353277  0.11018486  0.19013564     0.43400
H1728       H  0.82345731  0.49900421  0.17204707     0.43300
C1729       C  0.54108890  0.09901707  0.15277119    -0.05700
C1730       C  0.57547434  0.12325778  0.14661359    -0.33100
C1731       C  0.60151977  0.11446600  0.14897061     0.36100
C1732       C  0.59297479  0.08071093  0.15654042    -0.06100
C1733       C  0.55901382  0.05702857  0.16408007    -0.33000
C1734       C  0.53314850  0.06610781  0.16262413     0.36000
H1735       H  0.58199176  0.14881376  0.13937033     0.16400
O1736       O  0.63445271  0.13796027  0.14121157    -0.60500
H1737       H  0.55215449  0.03086684  0.16971615     0.16400
O1738       O  0.49985682  0.04212292  0.16939863    -0.60600
H1739       H  0.49103101  0.02417061  0.15344110     0.43400
H1740       H  0.64660545  0.15151352  0.15950640     0.43300
O1741       O  0.88288468  0.10114155  0.63010906    -0.85600
O1742       O  0.92584911  0.15332869  0.59767673    -0.82600
C1743       C  0.94416724  0.17901583  0.61534583     0.97900
O1744       O  0.97001768  0.18171240  0.62973881    -0.82700
O1745       O  0.99553942  0.15798290  0.67159056    -0.85300
C1746       C  0.97183249  0.14701256  0.69017538     1.02400
O1747       O  0.94282411  0.12039960  0.68421018    -0.78100
O1748       O  0.88776399  0.06308127  0.65586485    -0.78300
C1749       C  0.87051452  0.07728380  0.64798477     1.02300
O1750       O  0.89803468  0.05110909  0.60056812    -0.85600
O1751       O  0.94361509  0.10654709  0.56775778    -0.82700
C1752       C  0.97210795  0.13270193  0.56194525     0.97900
O1753       O  0.99122622  0.15433585  0.58236643    -0.82700
O1754       O  0.51378063  0.12483987  0.62577265    -0.85300
C1755       C  0.51355211  0.10772034  0.64773999     1.02400
O1756       O  0.98995126  0.09848778  0.66584587    -0.78100
O1757       O  0.93785121  0.05044695  0.63050916    -0.78300
C1758       C  0.91339830  0.03554626  0.61142293     1.02300
Cr1759     Cr  0.91508274  0.10362678  0.60075205     1.93700
Cr1760     Cr  0.98982276  0.15185089  0.62705472     1.93200
Cr1761     Cr  0.94021908  0.08538015  0.65699479     1.39100
O1762       O  0.94856034  0.11365662  0.62769162    -1.23300
O1763       O  0.87684853  0.26789585  0.61330568    -0.85600
O1764       O  0.82432019  0.25962708  0.57862575    -0.82600
C1765       C  0.80163042  0.24938700  0.59783429     0.97900
O1766       O  0.80202138  0.27046735  0.61654172    -0.82700
O1767       O  0.82816060  0.32889106  0.65361246    -0.85300
C1768       C  0.84414802  0.32288572  0.67440633     1.02400
O1769       O  0.86911466  0.31853488  0.66899235    -0.78100
O1770       O  0.91802325  0.31027395  0.64027837    -0.78300
C1771       C  0.90201713  0.27855165  0.63147582     1.02300
O1772       O  0.92775595  0.32911240  0.58432192    -0.85600
O1773       O  0.87028998  0.32488498  0.55266303    -0.82700
C1774       C  0.84015127  0.31940981  0.54606071     0.97900
O1775       O  0.81849877  0.31256742  0.56581701    -0.82700
O1776       O  0.84996709  0.36993165  0.60244322    -0.85300
C1777       C  0.87353172  0.39243156  0.61948452     1.02400
O1778       O  0.88874117  0.38383935  0.63931367    -0.78100
O1779       O  0.93246948  0.37320859  0.60901990    -0.78300
C1780       C  0.94563810  0.36064693  0.59301475     1.02300
Cr1781     Cr  0.87459672  0.29738871  0.58379467     1.93700
Cr1782     Cr  0.82722744  0.32042711  0.60976191     1.93200
Cr1783     Cr  0.89980327  0.34473912  0.63782514     1.39100
O1784       O  0.86727531  0.32109103  0.61042904    -1.23300
O1785       O  0.71603797  0.04974759  0.67538668    -0.85600
O1786       O  0.71278303  0.09532711  0.63828615    -0.82600
C1787       C  0.70276347  0.10797404  0.61830366     0.97900
O1788       O  0.67155166  0.09182343  0.60835585    -0.82700
O1789       O  0.67109356  0.03697205  0.58011003    -0.85300
C1790       C  0.66701914  0.00745340  0.57478373     1.02400
O1791       O  0.65733681  0.48511115  0.59464508    -0.78100
O1792       O  0.70731545  0.01223064  0.64011985    -0.78300
C1793       C  0.72722908  0.03475454  0.65926980     1.02300
O1794       O  0.64919231  0.03170137  0.69524236    -0.85600
O1795       O  0.64727869  0.08202040  0.66154978    -0.82700
C1796       C  0.61645686  0.06772151  0.65021606     0.97900
O1797       O  0.60601083  0.04365084  0.63121834    -0.82700
O1798       O  0.60174927  0.49150248  0.59680618    -0.85300
C1799       C  0.58753044  0.46540331  0.61277170     1.02400
O1800       O  0.60389682  0.46364872  0.63553395    -0.78100
O1801       O  0.65482023  0.48731909  0.68253787    -0.78300
C1802       C  0.64935733  0.50441127  0.70181569     1.02300
Cr1803     Cr  0.67954546  0.06230280  0.66548049     1.93700
Cr1804     Cr  0.63909182  0.04029455  0.60645881     1.93200
Cr1805     Cr  0.65594564  0.48998415  0.63835440     1.39100
O1806       O  0.65791555  0.03056149  0.63704879    -1.23300
O1807       O  0.76161410  0.31872292  0.82524785    -0.85600
O1808       O  0.76685298  0.36764306  0.86422113    -0.82600
C1809       C  0.77790281  0.39111899  0.88375727     0.97900
O1810       O  0.80938184  0.40576199  0.89303378    -0.82700
O1811       O  0.80929036  0.35047054  0.91927231    -0.85300
C1812       C  0.81297115  0.32477323  0.92400903     1.02400
O1813       O  0.82211394  0.31182885  0.90380164    -0.78100
O1814       O  0.77169460  0.28925693  0.85863851    -0.78300
C1815       C  0.75122247  0.29159769  0.84002272     1.02300
O1816       O  0.82811401  0.36793372  0.80461805    -0.85600
O1817       O  0.83185628  0.42003541  0.84008646    -0.82700
C1818       C  0.86299901  0.43654824  0.85091830     0.97900
O1819       O  0.87408325  0.42238139  0.86863576    -0.82700
O1820       O  0.87857877  0.37372995  0.90195471    -0.85300
C1821       C  0.89220901  0.36149866  0.88544493     1.02400
O1822       O  0.87529351  0.34394601  0.86252982    -0.78100
O1823       O  0.82397409  0.31818381  0.81591685    -0.78300
C1824       C  0.82883557  0.34109462  0.79729542     1.02300
Cr1825     Cr  0.79891993  0.36787542  0.83557247     1.93700
Cr1826     Cr  0.84130609  0.38585193  0.89339403     1.93200
Cr1827     Cr  0.82314420  0.31866903  0.86017428     1.39100
O1828       O  0.82145466  0.35742704  0.86267542    -1.23300
O1829       O  0.60686545  0.38158610  0.88555724    -0.85600
O1830       O  0.65869938  0.42627369  0.92078163    -0.82600
C1831       C  0.68150157  0.43824118  0.90165083     0.97900
O1832       O  0.68126604  0.45874058  0.88275989    -0.82700
O1833       O  0.65457566  0.49050802  0.84520473    -0.85300
C1834       C  0.63848407  0.46868040  0.82421660     1.02400
O1835       O  0.61397875  0.43907156  0.82953919    -0.78100
O1836       O  0.56545053  0.38147945  0.85816420    -0.78300
C1837       C  0.58165131  0.36625872  0.86749721     1.02300
O1838       O  0.55487799  0.39062036  0.91410761    -0.85600
O1839       O  0.61212026  0.44495508  0.94638079    -0.82700
C1840       C  0.64200529  0.47037904  0.95278515     0.97900
O1841       O  0.66373314  0.48486286  0.93304494    -0.82700
O1842       O  0.63201598  0.00961948  0.89599275    -0.85300
C1843       C  0.60809965  0.00788326  0.87906327     1.02400
O1844       O  0.59298456  0.48378221  0.85933891    -0.78100
O1845       O  0.54909347  0.42893371  0.88903029    -0.78300
C1846       C  0.53618327  0.40307866  0.90478378     1.02300
Cr1847     Cr  0.60827822  0.41306351  0.91511209     1.93700
Cr1848     Cr  0.65533084  0.48323037  0.88904912     1.93200
Cr1849     Cr  0.58278696  0.43398402  0.86066386     1.39100
O1850       O  0.61534182  0.44365863  0.88835005    -1.23300
O1851       O  0.59625988  0.20398846  0.86703824    -0.85600
O1852       O  0.55631197  0.21611858  0.90126270    -0.82600
C1853       C  0.53818076  0.22387926  0.88394669     0.97900
O1854       O  0.51082097  0.20074834  0.87098429    -0.82700
O1855       O  0.98118001  0.15002224  0.83019080    -0.85300
C1856       C  0.50393747  0.16197136  0.81083227     1.02400
O1857       O  0.53268166  0.16333029  0.81545263    -0.78100
O1858       O  0.58833931  0.15964617  0.84122679    -0.78300
C1859       C  0.60705332  0.19119146  0.84874183     1.02300
O1860       O  0.58008726  0.13910457  0.89726219    -0.85600
O1861       O  0.53827384  0.15274003  0.93234551    -0.82700
C1862       C  0.01023880  0.15102997  0.93894021     0.97900
O1863       O  0.99053442  0.15330511  0.91907912    -0.82700
O1864       O  0.96373603  0.09958124  0.87636625    -0.85300
C1865       C  0.96252659  0.08172327  0.85435445     1.02400
O1866       O  0.98520087  0.09525662  0.83536891    -0.78100
O1867       O  0.53852111  0.09842304  0.86834469    -0.78300
C1868       C  0.56362405  0.10790769  0.88674664     1.02300
Cr1869     Cr  0.56507142  0.17600902  0.89778840     1.93700
Cr1870     Cr  0.98938919  0.15080067  0.87441076     1.93200
Cr1871     Cr  0.53571843  0.13095593  0.84226243     1.39100
O1872       O  0.52985079  0.15231413  0.87216545    -1.23300
C1873       C  0.54939918  0.26030309  0.87708013    -0.05700
C1874       C  0.52478900  0.26930864  0.86632472    -0.33100
C1875       C  0.53504610  0.30353233  0.85889562     0.36100
C1876       C  0.57033186  0.32925103  0.86207662    -0.06100
C1877       C  0.59503538  0.31910137  0.86926721    -0.33000
C1878       C  0.58489274  0.28538095  0.87741073     0.36000
H1879       H  0.49735789  0.24997783  0.86453215     0.16400
O1880       O  0.51020833  0.31180591  0.85060636    -0.60500
H1881       H  0.62254805  0.33821288  0.87107565     0.16400
O1882       O  0.60985772  0.27757309  0.88673481    -0.60600
H1883       H  0.62378376  0.28045039  0.86950882     0.43400
H1884       H  0.01059516  0.31297708  0.82890114     0.43300
C1885       C  0.59736654  0.03396340  0.88309963    -0.05700
C1886       C  0.56188210  0.02296559  0.88292052    -0.33100
C1887       C  0.55069444  0.04662523  0.88786604     0.36100
C1888       C  0.57514247  0.08241237  0.89202380    -0.06100
C1889       C  0.61073304  0.09320995  0.89383246    -0.33000
C1890       C  0.62191454  0.06920072  0.88959824     0.36000
H1891       H  0.54267718  0.49581133  0.87911980     0.16400
O1892       O  0.51558570  0.03469762  0.88706262    -0.60500
H1893       H  0.62992933  0.12049592  0.89658582     0.16400
O1894       O  0.65691603  0.08067832  0.89062625    -0.60600
H1895       H  0.66406787  0.08701793  0.87024024     0.43400
H1896       H  0.50875899  0.02877626  0.90757171     0.43300
C1897       C  0.88586778  0.47362240  0.84593681    -0.05700
C1898       C  0.87611335  0.49735111  0.85538316    -0.33100
C1899       C  0.90062793  0.03286808  0.85787597     0.36100
C1900       C  0.93518480  0.04498202  0.85033654    -0.06100
C1901       C  0.94417941  0.02137698  0.83907578    -0.33000
C1902       C  0.92001410  0.48588356  0.83742098     0.36000
H1903       H  0.85003931  0.48813544  0.86248570     0.16400
O1904       O  0.89075104  0.05534599  0.86823986    -0.60500
H1905       H  0.97055298  0.03027735  0.83289330     0.16400
O1906       O  0.93010811  0.46320376  0.82795811    -0.60600
H1907       H  0.94255897  0.46012770  0.84517226     0.43400
H1908       H  0.88355864  0.06341952  0.85051256     0.43300
C1909       C  0.64270270  0.21303223  0.83872091    -0.05700
C1910       C  0.66815339  0.20407778  0.84564549    -0.33100
C1911       C  0.70373794  0.22884444  0.84469395     0.36100
C1912       C  0.71428178  0.26304409  0.83627263    -0.06100
C1913       C  0.68853697  0.27072927  0.82655525    -0.33000
C1914       C  0.65308867  0.24609074  0.82782569     0.36000
H1915       H  0.66055963  0.17865439  0.85392345     0.16400
O1916       O  0.72795350  0.21953105  0.85260783    -0.60500
H1917       H  0.69580129  0.29656301  0.81957891     0.16400
O1918       O  0.62870925  0.25512428  0.81978422    -0.60600
H1919       H  0.62424673  0.25007094  0.79836009     0.43400
H1920       H  0.72913191  0.22003247  0.87437006     0.43300
C1921       C  0.75483690  0.40360804  0.89325018    -0.05700
C1922       C  0.76611127  0.43906826  0.89201338    -0.33100
C1923       C  0.74263266  0.45093996  0.89523742     0.36100
C1924       C  0.70777689  0.42738211  0.90112003    -0.06100
C1925       C  0.69722224  0.39227352  0.90453244    -0.33000
C1926       C  0.72025877  0.38017926  0.89991623     0.36000
H1927       H  0.79264060  0.45733259  0.88679412     0.16400
O1928       O  0.75396359  0.48555665  0.89266027    -0.60500
H1929       H  0.67054215  0.37386876  0.90925070     0.16400
O1930       O  0.70878352  0.34544708  0.90183217    -0.60600
H1931       H  0.69631963  0.33493610  0.88268476     0.43400
H1932       H  0.75349458  0.48919514  0.87124018     0.43300
C1933       C  0.49816688  0.38616475  0.90809201    -0.05700
C1934       C  0.97593813  0.35650104  0.89062259    -0.33100
C1935       C  0.94126704  0.34758974  0.88328447     0.36100
C1936       C  0.92798649  0.36814240  0.89398419    -0.06100
C1937       C  0.94959689  0.39614788  0.91347200    -0.33000
C1938       C  0.98431210  0.40538619  0.92018266     0.36000
H1939       H  0.48627399  0.34181074  0.88066491     0.16400
O1940       O  0.92089072  0.31910840  0.86531826    -0.60500
H1941       H  0.94017069  0.41225448  0.92238679     0.16400
O1942       O  0.00536735  0.43503390  0.93666689    -0.60600
H1943       H  0.00660429  0.42705543  0.95669442     0.43400
H1944       H  0.92685611  0.32728312  0.84507214     0.43300
C1945       C  0.64671544  0.49459609  0.73297464    -0.05700
C1946       C  0.65946716  0.02083452  0.75501041    -0.33100
C1947       C  0.65913987  0.51309268  0.78473936     0.36100
C1948       C  0.64511490  0.47841673  0.79309309    -0.06100
C1949       C  0.63279639  0.45221134  0.77098732    -0.33000
C1950       C  0.63389914  0.46010322  0.74119512     0.36000
H1951       H  0.67007679  0.04766641  0.74917958     0.16400
O1952       O  0.67078239  0.03948779  0.80539706    -0.60500
H1953       H  0.62159791  0.42531959  0.77681569     0.16400
O1954       O  0.62081698  0.43372687  0.72039779    -0.60600
H1955       H  0.64018651  0.42934759  0.71703145     0.43400
H1956       H  0.69603846  0.04807834  0.80857270     0.43300
C1957       C  0.65260497  0.48033313  0.98382162    -0.05700
C1958       C  0.63928499  0.45430729  0.00459258    -0.33100
C1959       C  0.64698518  0.46242658  0.53446049     0.36100
C1960       C  0.66755874  0.49734849  0.54409974    -0.06100
C1961       C  0.68295183  0.02316200  0.52317091    -0.33000
C1962       C  0.67583355  0.01479015  0.99313599     0.36000
H1963       H  0.62227303  0.42745698  0.99766349     0.16400
O1964       O  0.63178081  0.43623053  0.55395573    -0.60500
H1965       H  0.69912261  0.05011635  0.53011584     0.16400
O1966       O  0.69036901  0.04062400  0.97324377    -0.60600
H1967       H  0.67298973  0.04803728  0.96940105     0.43400
H1968       H  0.64888131  0.42847219  0.55780037     0.43300
C1969       C  0.82931396  0.31686276  0.51491029    -0.05700
C1970       C  0.84561333  0.30678547  0.49457596    -0.33100
C1971       C  0.83755818  0.30541757  0.96463925     0.36100
C1972       C  0.81310215  0.31471860  0.95454221    -0.06100
C1973       C  0.79499002  0.32245464  0.97497011    -0.33000
C1974       C  0.80290828  0.32350419  0.50506056     0.36000
H1975       H  0.86540681  0.30070185  0.50183949     0.16400
O1976       O  0.85644300  0.29855051  0.94547569    -0.60500
H1977       H  0.77618574  0.32979004  0.96750899     0.16400
O1978       O  0.78601112  0.33275798  0.52442556    -0.60600
H1979       H  0.80045945  0.35831805  0.52682136     0.43400
H1980       H  0.84369489  0.27298034  0.94275261     0.43300
C1981       C  0.83238654  0.33539188  0.76598159    -0.05700
C1982       C  0.81960073  0.34928603  0.74450856    -0.33100
C1983       C  0.82155785  0.34395733  0.71458343     0.36100
C1984       C  0.83665439  0.32449228  0.70552415    -0.06100
C1985       C  0.84902727  0.31020454  0.72704693    -0.33000
C1986       C  0.84676652  0.31531060  0.75700847     0.36000
H1987       H  0.80791239  0.36438895  0.75092932     0.16400
O1988       O  0.80959767  0.35884048  0.69450280    -0.60500
H1989       H  0.86119652  0.29554793  0.72065583     0.16400
O1990       O  0.86033309  0.30210485  0.77727787    -0.60600
H1991       H  0.84176096  0.27770096  0.77948110     0.43400
H1992       H  0.82988673  0.38202171  0.69118046     0.43300
C1993       C  0.77490469  0.21263782  0.59870252    -0.05700
C1994       C  0.78460292  0.18734300  0.59608258    -0.33100
C1995       C  0.76098687  0.15271615  0.60170289     0.36100
C1996       C  0.72677754  0.14293871  0.60859066    -0.06100
C1997       C  0.71637552  0.16777266  0.60886717    -0.33000
C1998       C  0.74041945  0.20262665  0.60477303     0.36000
H1999       H  0.81101787  0.19472955  0.59118849     0.16400
O2000       O  0.77183522  0.12888177  0.60128476    -0.60500
H2001       H  0.69007749  0.16046995  0.61388619     0.16400
O2002       O  0.73002741  0.22672806  0.60673834    -0.60600
H2003       H  0.73052309  0.23150126  0.62807405     0.43400
H2004       H  0.76296438  0.11638595  0.58202398     0.43300
C2005       C  0.55204738  0.43683096  0.60350947    -0.05700
C2006       C  0.54124246  0.40244545  0.61068421    -0.33100
C2007       C  0.50730634  0.37560896  0.60287746     0.36100
C2008       C  0.98315874  0.38301456  0.58866562    -0.06100
C2009       C  0.99465633  0.41694754  0.57981420    -0.33000
C2010       C  0.52877899  0.44358291  0.58665079     0.36000
H2011       H  0.55890504  0.39642996  0.62285505     0.16400
O2012       O  0.99704390  0.34281928  0.61182534    -0.62900
H2013       H  0.97629193  0.42335953  0.56946090     0.16400
O2014       O  0.53807670  0.47666275  0.57888300    -0.60600
H2015       H  0.54468979  0.47827129  0.55820913     0.43400
H2016       H  0.50059798  0.33110966  0.59491468     0.43300
C2017       C  0.99566331  0.16956249  0.78112137    -0.05700
C2018       C  0.96084347  0.15396986  0.77075715    -0.33100
C2019       C  0.95241042  0.14984215  0.74058452     0.36100
C2020       C  0.97918892  0.16159370  0.72047943    -0.06100
C2021       C  0.51384143  0.18217267  0.73100224    -0.33000
C2022       C  0.52219795  0.18644589  0.76112868     0.36000
H2023       H  0.94003123  0.14194656  0.78580254     0.16400
O2024       O  0.91795711  0.13236252  0.73104732    -0.60500
H2025       H  0.53478096  0.19240219  0.71600390     0.16400
O2026       O  0.55660965  0.20440780  0.77060589    -0.60600
H2027       H  0.56097905  0.22759471  0.77692727     0.43400
H2028       H  0.90949966  0.10762247  0.73499482     0.43300
C2029       C  0.98213354  0.13808397  0.53050419    -0.05700
C2030       C  0.51722401  0.15662436  0.52337012    -0.33100
C2031       C  0.52665550  0.16070451  0.99386155     0.36100
C2032       C  0.00084722  0.14693678  0.97051430    -0.06100
C2033       C  0.96580582  0.12936054  0.97766901    -0.33000
C2034       C  0.95639089  0.12471040  0.50708735     0.36000
H2035       H  0.53752172  0.16756575  0.54073027     0.16400
O2036       O  0.56126674  0.17934473  0.98811537    -0.60500
H2037       H  0.94546611  0.11872529  0.96033150     0.16400
O2038       O  0.92168399  0.10721028  0.51261807    -0.60600
H2039       H  0.91485653  0.12519874  0.51323498     0.43400
H2040       H  0.56987686  0.16279205  0.99024786     0.43300
C2041       C  0.93430037  0.20533750  0.62151363    -0.05700
C2042       C  0.89924814  0.19428069  0.62513516    -0.33100
C2043       C  0.88908665  0.21772229  0.63388719     0.36100
C2044       C  0.91384685  0.25346553  0.63750727    -0.06100
C2045       C  0.94919637  0.26396897  0.63677237    -0.33000
C2046       C  0.95958395  0.24016687  0.62894472     0.36000
H2047       H  0.87962731  0.16722648  0.62156210     0.16400
O2048       O  0.85435822  0.20584958  0.63680395    -0.60500
H2049       H  0.96864202  0.29087279  0.64053411     0.16400
O2050       O  0.99437540  0.25161744  0.62697226    -0.60600
H2051       H  0.00343474  0.25297168  0.64747704     0.43400
H2052       H  0.85038091  0.20002116  0.65775831     0.43300
C2053       C  0.88336318  0.42900900  0.61547779    -0.05700
C2054       C  0.85757443  0.43797786  0.60939513    -0.33100
C2055       C  0.86666807  0.47261308  0.60478978     0.36100
C2056       C  0.90197713  0.49861420  0.60553721    -0.06100
C2057       C  0.92748840  0.48885532  0.60904093    -0.33000
C2058       C  0.91851780  0.45474604  0.61475679     0.36000
H2059       H  0.83029672  0.41824588  0.60923758     0.16400
O2060       O  0.84100653  0.48101366  0.60195327    -0.60500
H2061       H  0.95483453  0.00836355  0.60920164     0.16400
O2062       O  0.94436494  0.44675143  0.61906703    -0.60600
H2063       H  0.95153277  0.45172415  0.64023057     0.43400
H2064       H  0.83383845  0.47754901  0.58075330     0.43300
C2065       C  0.76434298  0.04482849  0.66212571    -0.05700
C2066       C  0.77441658  0.01987548  0.65863067    -0.33100
C2067       C  0.80966121  0.02988888  0.65703171     0.36100
C2068       C  0.83509748  0.06531659  0.65760684    -0.06100
C2069       C  0.82513725  0.09005081  0.66271625    -0.33000
C2070       C  0.79019610  0.08004389  0.66551170     0.36000
H2071       H  0.75485279  0.49266696  0.65627034     0.16400
O2072       O  0.81855123  0.00507132  0.65222382    -0.60500
H2073       H  0.84441585  0.11742706  0.66325085     0.16400
O2074       O  0.78137248  0.10518601  0.66869334    -0.60600
H2075       H  0.78353381  0.11018665  0.69013406     0.43400
H2076       H  0.82345672  0.49900505  0.67204717     0.43300
C2077       C  0.54108820  0.09901679  0.65277117    -0.05700
C2078       C  0.57547342  0.12325725  0.64661278    -0.33100
C2079       C  0.60151890  0.11446560  0.64896988     0.36100
C2080       C  0.59297424  0.08071097  0.65654076    -0.06100
C2081       C  0.55901353  0.05702888  0.66408124    -0.33000
C2082       C  0.53314811  0.06610798  0.66262508     0.36000
H2083       H  0.58199062  0.14881292  0.63936875     0.16400
O2084       O  0.63445152  0.13795945  0.64120976    -0.60500
H2085       H  0.55215441  0.03086746  0.66971799     0.16400
O2086       O  0.49985660  0.04212321  0.66940008    -0.60600
H2087       H  0.49102998  0.02417142  0.65344195     0.43400
H2088       H  0.64660454  0.15151353  0.65950351     0.43300
O2089       O  0.88288506  0.60114118  0.13010990    -0.85600
O2090       O  0.92584894  0.65332846  0.09767751    -0.82600
C2091       C  0.94416736  0.67901563  0.11534650     0.97900
O2092       O  0.97001811  0.68171228  0.12973903    -0.82700
O2093       O  0.99553990  0.65798290  0.17159076    -0.85300
C2094       C  0.97183296  0.64701251  0.19017559     1.02400
O2095       O  0.94282470  0.62039936  0.18421049    -0.78100
O2096       O  0.88776461  0.56308083  0.15586530    -0.78300
C2097       C  0.87051500  0.57728330  0.14798547     1.02300
O2098       O  0.89803520  0.55110906  0.10056842    -0.85600
O2099       O  0.94361487  0.60654730  0.06775790    -0.82700
C2100       C  0.97210795  0.63270191  0.06194542     0.97900
O2101       O  0.99122657  0.65433560  0.08236661    -0.82700
O2102       O  0.51378127  0.62483996  0.12577281    -0.85300
C2103       C  0.51355288  0.60772056  0.14774017     1.02400
O2104       O  0.98995193  0.59848781  0.16584599    -0.78100
O2105       O  0.93785195  0.55044699  0.13050922    -0.78300
C2106       C  0.91339902  0.53554632  0.11142301     1.02300
Cr2107     Cr  0.91508291  0.60362666  0.10075256     1.93700
Cr2108     Cr  0.98982322  0.65185080  0.12705489     1.93200
Cr2109     Cr  0.94021974  0.58538003  0.15699500     1.39100
O2110       O  0.94856080  0.61365652  0.12769186    -1.23300
O2111       O  0.87684961  0.76789606  0.11330541    -0.85600
O2112       O  0.82432080  0.75962693  0.07862606    -0.82600
C2113       C  0.80163122  0.74938700  0.09783477     0.97900
O2114       O  0.80202220  0.77046752  0.11654203    -0.82700
O2115       O  0.82816148  0.82889140  0.15361248    -0.85300
C2116       C  0.84414911  0.82288634  0.17440637     1.02400
O2117       O  0.86911563  0.81853534  0.16899236    -0.78100
O2118       O  0.91802399  0.81027424  0.14027832    -0.78300
C2119       C  0.90201796  0.77855194  0.13147585     1.02300
O2120       O  0.92775633  0.82911264  0.08432140    -0.85600
O2121       O  0.87029002  0.82488470  0.05266276    -0.82700
C2122       C  0.84015126  0.81940950  0.04606067     0.97900
O2123       O  0.81849895  0.81256714  0.06581713    -0.82700
O2124       O  0.84996764  0.86993172  0.10244314    -0.85300
C2125       C  0.87353234  0.89243164  0.11948438     1.02400
O2126       O  0.88874188  0.88383950  0.13931349    -0.78100
O2127       O  0.93247024  0.87320880  0.10901975    -0.78300
C2128       C  0.94563861  0.86064710  0.09301436     1.02300
Cr2129     Cr  0.87459724  0.79738876  0.08379450     1.93700
Cr2130     Cr  0.82722805  0.82042717  0.10976198     1.93200
Cr2131     Cr  0.89980404  0.84473936  0.13782499     1.39100
O2132       O  0.86727595  0.82109112  0.11042896    -1.23300
O2133       O  0.71603834  0.54974712  0.17538737    -0.85600
O2134       O  0.71278382  0.59532695  0.13828683    -0.82600
C2135       C  0.70276443  0.60797401  0.11830432     0.97900
O2136       O  0.67155269  0.59182349  0.10835631    -0.82700
O2137       O  0.67109429  0.53697194  0.08011035    -0.85300
C2138       C  0.66701968  0.50745322  0.07478405     1.02400
O2139       O  0.65733722  0.98511057  0.09464523    -0.78100
O2140       O  0.70731601  0.51223043  0.14012038    -0.78300
C2141       C  0.72722955  0.53475414  0.15927051     1.02300
O2142       O  0.64919258  0.53170111  0.19524253    -0.85600
O2143       O  0.64727950  0.58202053  0.16155010    -0.82700
C2144       C  0.61645771  0.56772179  0.15021626     0.97900
O2145       O  0.60601169  0.54365117  0.13121851    -0.82700
O2146       O  0.60174986  0.99150240  0.09680589    -0.85300
C2147       C  0.58753084  0.96540328  0.11277140     1.02400
O2148       O  0.60389699  0.96364864  0.13553380    -0.78100
O2149       O  0.65481980  0.98731852  0.18253797    -0.78300
C2150       C  0.64935667  0.00441074  0.20181557     1.02300
Cr2151     Cr  0.67954603  0.56230262  0.16548094     1.93700
Cr2152     Cr  0.63909263  0.54029466  0.10645910     1.93200
Cr2153     Cr  0.65594576  0.98998365  0.13835453     1.39100
O2154       O  0.65791618  0.53056144  0.13704913    -1.23300
O2155       O  0.76161400  0.81872335  0.32524799    -0.85600
O2156       O  0.76685333  0.86764366  0.36422148    -0.82600
C2157       C  0.77790336  0.89111975  0.38375749     0.97900
O2158       O  0.80938244  0.90576272  0.39303384    -0.82700
O2159       O  0.80929089  0.85047114  0.41927228    -0.85300
C2160       C  0.81297160  0.82477376  0.42400892     1.02400
O2161       O  0.82211433  0.81182935  0.40380150    -0.78100
O2162       O  0.77169495  0.78925753  0.35863848    -0.78300
C2163       C  0.75122262  0.79159813  0.34002282     1.02300
O2164       O  0.82811375  0.86793402  0.30461792    -0.85600
O2165       O  0.83185652  0.92003585  0.34008637    -0.82700
C2166       C  0.86299930  0.93654868  0.35091811     0.97900
O2167       O  0.87408359  0.92238186  0.36863558    -0.82700
O2168       O  0.87857904  0.87373032  0.40195454    -0.85300
C2169       C  0.89220930  0.86149897  0.38544490     1.02400
O2170       O  0.87529391  0.84394632  0.36252973    -0.78100
O2171       O  0.82397439  0.81818435  0.31591675    -0.78300
C2172       C  0.82883570  0.84109513  0.29729532     1.02300
Cr2173     Cr  0.79892000  0.86787586  0.33557255     1.93700
Cr2174     Cr  0.84130652  0.88585246  0.39339393     1.93200
Cr2175     Cr  0.82314454  0.81866953  0.36017417     1.39100
O2176       O  0.82145497  0.85742755  0.36267535    -1.23300
O2177       O  0.60686554  0.88158633  0.38555705    -0.85600
O2178       O  0.65869956  0.92627396  0.42078143    -0.82600
C2179       C  0.68150170  0.93824149  0.40165057     0.97900
O2180       O  0.68126592  0.95874069  0.38275956    -0.82700
O2181       O  0.65457504  0.99050787  0.34520457    -0.85300
C2182       C  0.63848308  0.96868021  0.32421650     1.02400
O2183       O  0.61397773  0.93907150  0.32953922    -0.78100
O2184       O  0.56545023  0.88147957  0.35816450    -0.78300
C2185       C  0.58165120  0.86625890  0.36749724     1.02300
O2186       O  0.55487801  0.89062016  0.41410771    -0.85600
O2187       O  0.61212043  0.94495508  0.44638084    -0.82700
C2188       C  0.64200544  0.97037916  0.45278506     0.97900
O2189       O  0.66373323  0.98486294  0.43304479    -0.82700
O2190       O  0.63201647  0.50961997  0.39599280    -0.85300
C2191       C  0.60810002  0.50788371  0.37906343     1.02400
O2192       O  0.59298411  0.98378238  0.35933943    -0.78100
O2193       O  0.54909350  0.92893386  0.38903099    -0.78300
C2194       C  0.53618327  0.90307854  0.40478413     1.02300
Cr2195     Cr  0.60827832  0.91306358  0.41511205     1.93700
Cr2196     Cr  0.65533070  0.98323044  0.38904899     1.93200
Cr2197     Cr  0.58278653  0.93398414  0.36066422     1.39100
O2198       O  0.61534169  0.94365873  0.38835010    -1.23300
O2199       O  0.59625993  0.70398880  0.36703838    -0.85600
O2200       O  0.55631214  0.71611896  0.40126286    -0.82600
C2201       C  0.53818082  0.72387961  0.38394697     0.97900
O2202       O  0.51082099  0.70074866  0.37098461    -0.82700
O2203       O  0.98117995  0.65002275  0.33019099    -0.85300
C2204       C  0.50393757  0.66197186  0.31083250     1.02400
O2205       O  0.53268174  0.66333077  0.31545290    -0.78100
O2206       O  0.58833933  0.65964647  0.34122699    -0.78300
C2207       C  0.60705340  0.69119175  0.34874206     1.02300
O2208       O  0.58008722  0.63910475  0.39726229    -0.85600
O2209       O  0.53827388  0.65274027  0.43234563    -0.82700
C2210       C  0.01023897  0.65103052  0.43894045     0.97900
O2211       O  0.99053452  0.65330558  0.41907935    -0.82700
O2212       O  0.96373599  0.59958161  0.37636649    -0.85300
C2213       C  0.96252646  0.58172365  0.35435467     1.02400
O2214       O  0.98520069  0.59525704  0.33536907    -0.78100
O2215       O  0.53852101  0.59842323  0.36834480    -0.78300
C2216       C  0.56362394  0.60790783  0.38674674     1.02300
Cr2217     Cr  0.56507150  0.67600931  0.39778856     1.93700
Cr2218     Cr  0.98938918  0.65080108  0.37441099     1.93200
Cr2219     Cr  0.53571841  0.63095626  0.34226260     1.39100
O2220       O  0.52985084  0.65231445  0.37216566    -1.23300
C2221       C  0.54939915  0.76030338  0.37708037    -0.05700
C2222       C  0.52478881  0.76930896  0.36632547    -0.33100
C2223       C  0.53504585  0.80353255  0.35889614     0.36100
C2224       C  0.57033166  0.82925119  0.36207664    -0.06100
C2225       C  0.59503528  0.81910153  0.36926681    -0.33000
C2226       C  0.58489275  0.78538110  0.37741024     0.36000
H2227       H  0.49735764  0.74997817  0.36453338     0.16400
O2228       O  0.51020804  0.81180614  0.35060712    -0.60500
H2229       H  0.62254796  0.83821301  0.37107494     0.16400
O2230       O  0.60985786  0.77757309  0.38673357    -0.60600
H2231       H  0.62378309  0.78044973  0.36950693     0.43400
H2232       H  0.01059364  0.81297685  0.32890274     0.43300
C2233       C  0.59736672  0.53396370  0.38309998    -0.05700
C2234       C  0.56188221  0.52296578  0.38292055    -0.33100
C2235       C  0.55069437  0.54662534  0.38786592     0.36100
C2236       C  0.57514232  0.58241247  0.39202392    -0.06100
C2237       C  0.61073289  0.59321009  0.39383303    -0.33000
C2238       C  0.62191455  0.56920096  0.38959895     0.36000
H2239       H  0.54267716  0.99581164  0.37912189     0.16400
O2240       O  0.51558559  0.53469763  0.38706206    -0.60500
H2241       H  0.62992912  0.62049603  0.39658666     0.16400
O2242       O  0.65691604  0.58067861  0.39062746    -0.60600
H2243       H  0.66406859  0.58701957  0.37024146     0.43400
H2244       H  0.50875890  0.52877802  0.40757140     0.43300
C2245       C  0.88586805  0.97362283  0.34593666    -0.05700
C2246       C  0.87611392  0.99735153  0.35538365    -0.33100
C2247       C  0.90062812  0.53286830  0.35787736     0.36100
C2248       C  0.93518456  0.54498238  0.35033668    -0.06100
C2249       C  0.94417865  0.52137745  0.33907465    -0.33000
C2250       C  0.92001418  0.98588397  0.33742037     0.36000
H2251       H  0.85004006  0.98813587  0.36248657     0.16400
O2252       O  0.89075165  0.55534607  0.36824240    -0.60500
H2253       H  0.97055184  0.53027789  0.33289112     0.16400
O2254       O  0.93010782  0.96320411  0.32795690    -0.60600
H2255       H  0.94255896  0.96012777  0.34517086     0.43400
H2256       H  0.88355706  0.56341860  0.35051568     0.43300
C2257       C  0.64270287  0.71303239  0.33872133    -0.05700
C2258       C  0.66815362  0.70407842  0.34564714    -0.33100
C2259       C  0.70373813  0.72884510  0.34469558     0.36100
C2260       C  0.71428193  0.76304433  0.33627295    -0.06100
C2261       C  0.68853707  0.77072896  0.32655448    -0.33000
C2262       C  0.65308875  0.74609040  0.32782496     0.36000
H2263       H  0.66055990  0.67865545  0.35392607     0.16400
O2264       O  0.72795365  0.71953217  0.35261098    -0.60500
H2265       H  0.69580133  0.79656237  0.31957718     0.16400
O2266       O  0.62870925  0.75512343  0.31978238    -0.60600
H2267       H  0.62424776  0.75007021  0.29835796     0.43400
H2268       H  0.72913147  0.72003444  0.37437324     0.43300
C2269       C  0.75483761  0.90360897  0.39325041    -0.05700
C2270       C  0.76611157  0.93906902  0.39201256    -0.33100
C2271       C  0.74263283  0.95094053  0.39523649     0.36100
C2272       C  0.70777728  0.92738273  0.40111987    -0.06100
C2273       C  0.69722314  0.89227440  0.40453343    -0.33000
C2274       C  0.72025987  0.88018032  0.39991753     0.36000
H2275       H  0.79264069  0.95733330  0.38679264     0.16400
O2276       O  0.75396350  0.98555713  0.39265852    -0.60500
H2277       H  0.67054329  0.87386965  0.40925232     0.16400
O2278       O  0.70878518  0.84544838  0.40183470    -0.60600
H2279       H  0.69632030  0.83493627  0.38268775     0.43400
H2280       H  0.75349423  0.98919489  0.37123928     0.43300
C2281       C  0.49816693  0.88616474  0.40809243    -0.05700
C2282       C  0.97593742  0.85649955  0.39062577    -0.33100
C2283       C  0.94126633  0.84758820  0.38328733     0.36100
C2284       C  0.92798668  0.86814275  0.39398447    -0.06100
C2285       C  0.94959777  0.89615014  0.41347033    -0.33000
C2286       C  0.98431284  0.90538846  0.42018128     0.36000
H2287       H  0.48627362  0.84180948  0.38066681     0.16400
O2288       O  0.92088903  0.81910481  0.36532348    -0.60500
H2289       H  0.94017216  0.91225817  0.42238313     0.16400
O2290       O  0.00536870  0.93503817  0.43666306    -0.60600
H2291       H  0.00662467  0.92706112  0.45668716     0.43400
H2292       H  0.92685409  0.82727683  0.34507660     0.43300
C2293       C  0.64671422  0.99459551  0.23297448    -0.05700
C2294       C  0.65946846  0.52083468  0.25501049    -0.33100
C2295       C  0.65913951  0.01309230  0.28473913     0.36100
C2296       C  0.64511359  0.97841631  0.29309293    -0.06100
C2297       C  0.63279393  0.95221070  0.27098721    -0.33000
C2298       C  0.63389672  0.96010249  0.24119499     0.36000
H2299       H  0.67007864  0.54766659  0.24917955     0.16400
O2300       O  0.67078487  0.53948822  0.30539708    -0.60500
H2301       H  0.62159460  0.92531889  0.27681564     0.16400
O2302       O  0.62081341  0.93372599  0.22039773    -0.60600
H2303       H  0.64018249  0.92934558  0.21703117     0.43400
H2304       H  0.69604123  0.54807783  0.30857289     0.43300
C2305       C  0.65260522  0.98033342  0.48382143    -0.05700
C2306       C  0.63928593  0.95430750  0.50459237    -0.33100
C2307       C  0.64698578  0.96242590  0.03446054     0.36100
C2308       C  0.66755932  0.99734783  0.04409984    -0.06100
C2309       C  0.68295233  0.52316153  0.02317119    -0.33000
C2310       C  0.67583323  0.51479075  0.49313592     0.36000
H2311       H  0.62227457  0.92745716  0.49766327     0.16400
O2312       O  0.63178159  0.93622978  0.05395571    -0.60500
H2313       H  0.69912365  0.55011583  0.03011614     0.16400
O2314       O  0.69036884  0.54062457  0.47324364    -0.60600
H2315       H  0.67298997  0.54803739  0.46940054     0.43400
H2316       H  0.64888259  0.92847176  0.05780056     0.43300
C2317       C  0.82931363  0.81686243  0.01491034    -0.05700
C2318       C  0.84561183  0.80678383  0.99457590    -0.33100
C2319       C  0.83755948  0.80541921  0.46463921     0.36100
C2320       C  0.81310261  0.81471906  0.45454203    -0.06100
C2321       C  0.79498944  0.82245386  0.47496979    -0.33000
C2322       C  0.80290881  0.82350519  0.00506081     0.36000
H2323       H  0.86540458  0.80069918  0.00183930     0.16400
O2324       O  0.85644547  0.79855357  0.44547579    -0.60500
H2325       H  0.77618448  0.82978832  0.46750852     0.16400
O2326       O  0.78601282  0.83276030  0.02442593    -0.60600
H2327       H  0.80046186  0.85832038  0.02682123     0.43400
H2328       H  0.84369818  0.77298381  0.44275199     0.43300
C2329       C  0.83238718  0.83539265  0.26598153    -0.05700
C2330       C  0.81960217  0.84928745  0.24450838    -0.33100
C2331       C  0.82155956  0.84395880  0.21458329     0.36100
C2332       C  0.83665559  0.82449324  0.20552415    -0.06100
C2333       C  0.84902785  0.81020505  0.22704702    -0.33000
C2334       C  0.84676686  0.81531108  0.25700850     0.36000
H2335       H  0.80791429  0.86439079  0.25092903     0.16400
O2336       O  0.80960040  0.85884273  0.19450253    -0.60500
H2337       H  0.86119671  0.79554805  0.22065600     0.16400
O2338       O  0.86033282  0.80210477  0.27727801    -0.60600
H2339       H  0.84176089  0.77770190  0.27948129     0.43400
H2340       H  0.82989015  0.88202375  0.19118037     0.43300
C2341       C  0.77490560  0.71263785  0.09870332    -0.05700
C2342       C  0.78460372  0.68734299  0.09608297    -0.33100
C2343       C  0.76098775  0.65271616  0.10170339     0.36100
C2344       C  0.72677857  0.64293875  0.10859157    -0.06100
C2345       C  0.71637666  0.66777279  0.10886859    -0.33000
C2346       C  0.74042057  0.70262675  0.10477441     0.36000
H2347       H  0.81101851  0.69472951  0.09118848     0.16400
O2348       O  0.77183608  0.62888175  0.10128487    -0.60500
H2349       H  0.69007876  0.66047012  0.11388797     0.16400
O2350       O  0.73002871  0.72672829  0.10674023    -0.60600
H2351       H  0.73052426  0.73150096  0.12807560     0.43400
H2352       H  0.76296494  0.61638599  0.08202419     0.43300
C2353       C  0.55204786  0.93683093  0.10350911    -0.05700
C2354       C  0.54124259  0.90244568  0.11068499    -0.33100
C2355       C  0.50730650  0.87560920  0.10287836     0.36100
C2356       C  0.98315926  0.88301443  0.08866532    -0.06100
C2357       C  0.99465721  0.91694708  0.07981278    -0.33000
C2358       C  0.52877984  0.94358255  0.08664947     0.36000
H2359       H  0.55890484  0.89643045  0.12285672     0.16400
O2360       O  0.99704346  0.84281989  0.11182781    -0.62900
H2361       H  0.97629308  0.92335887  0.06945858     0.16400
O2362       O  0.53807792  0.97666218  0.07888061    -0.60600
H2363       H  0.54469135  0.97827003  0.05820759     0.43400
H2364       H  0.50059883  0.83110976  0.09491820     0.43300
C2365       C  0.99566337  0.66956298  0.28112152    -0.05700
C2366       C  0.96084358  0.65397042  0.27075720    -0.33100
C2367       C  0.95241063  0.64984256  0.24058454     0.36100
C2368       C  0.97918924  0.66159392  0.22047954    -0.06100
C2369       C  0.51384181  0.68217298  0.23100246    -0.33000
C2370       C  0.52219816  0.68644641  0.26112889     0.36000
H2371       H  0.94003127  0.64194723  0.28580255     0.16400
O2372       O  0.91795743  0.63236309  0.23104721    -0.60500
H2373       H  0.53478142  0.69240234  0.21600417     0.16400
O2374       O  0.55660986  0.70440847  0.27060626    -0.60600
H2375       H  0.56098007  0.72759562  0.27692411     0.43400
H2376       H  0.90949964  0.60762222  0.23499494     0.43300
C2377       C  0.98213341  0.63808385  0.03050435    -0.05700
C2378       C  0.51722400  0.65662257  0.02337026    -0.33100
C2379       C  0.52665597  0.66070407  0.49386183     0.36100
C2380       C  0.00084748  0.64693751  0.47051455    -0.06100
C2381       C  0.96580613  0.62936186  0.47766939    -0.33000
C2382       C  0.95639061  0.62471204  0.00708762     0.36000
H2383       H  0.53752182  0.66756273  0.04073033     0.16400
O2384       O  0.56126726  0.67934338  0.48811554    -0.60500
H2385       H  0.94546627  0.61872691  0.46033193     0.16400
O2386       O  0.92168374  0.60721415  0.01261846    -0.60600
H2387       H  0.91485849  0.62520415  0.01323659     0.43400
H2388       H  0.56987660  0.66279046  0.49024807     0.43300
C2389       C  0.93430066  0.70533739  0.12151464    -0.05700
C2390       C  0.89924847  0.69428081  0.12513605    -0.33100
C2391       C  0.88908714  0.71772256  0.13388796     0.36100
C2392       C  0.91384744  0.75346576  0.13750794    -0.06100
C2393       C  0.94919693  0.76396896  0.13677344    -0.33000
C2394       C  0.95958435  0.74016666  0.12894601     0.36000
H2395       H  0.87962750  0.66722663  0.12156291     0.16400
O2396       O  0.85435872  0.70585009  0.13680450    -0.60500
H2397       H  0.96864268  0.79087269  0.14053531     0.16400
O2398       O  0.99437584  0.75161701  0.12697393    -0.60600
H2399       H  0.00343473  0.75297099  0.14747841     0.43400
H2400       H  0.85038097  0.70002051  0.15775841     0.43300
C2401       C  0.88336377  0.92900909  0.11547776    -0.05700
C2402       C  0.85757496  0.93797786  0.10939520    -0.33100
C2403       C  0.86666850  0.97261309  0.10479010     0.36100
C2404       C  0.90197754  0.99861432  0.10553768    -0.06100
C2405       C  0.92748888  0.98885554  0.10904127    -0.33000
C2406       C  0.91851838  0.95474622  0.11475690     0.36000
H2407       H  0.83029729  0.91824582  0.10923755     0.16400
O2408       O  0.84100686  0.98101348  0.10195361    -0.60500
H2409       H  0.95483533  0.50836374  0.10920157     0.16400
O2410       O  0.94436557  0.94675171  0.11906709    -0.60600
H2411       H  0.95153312  0.95172402  0.14023092     0.43400
H2412       H  0.83383939  0.97754963  0.08075322     0.43300
C2413       C  0.76434342  0.54482787  0.16212668    -0.05700
C2414       C  0.77441695  0.51987487  0.15863112    -0.33100
C2415       C  0.80966156  0.52988823  0.15703203     0.36100
C2416       C  0.83509795  0.56531591  0.15760768    -0.06100
C2417       C  0.82513783  0.59005008  0.16271783    -0.33000
C2418       C  0.79019667  0.58004318  0.16551333     0.36000
H2419       H  0.75485323  0.99266631  0.15627080     0.16400
O2420       O  0.81855155  0.50507073  0.15222351    -0.60500
H2421       H  0.84441653  0.61742629  0.16325293     0.16400
O2422       O  0.78137318  0.60518534  0.16869565    -0.60600
H2423       H  0.78353408  0.61018512  0.19013618     0.43400
H2424       H  0.82345764  0.99900511  0.17204758     0.43300
C2425       C  0.54108896  0.59901699  0.15277135    -0.05700
C2426       C  0.57547441  0.62325776  0.14661382    -0.33100
C2427       C  0.60151989  0.61446610  0.14897107     0.36100
C2428       C  0.59297498  0.58071112  0.15654107    -0.06100
C2429       C  0.55901401  0.55702871  0.16408066    -0.33000
C2430       C  0.53314853  0.56610772  0.16262438     0.36000
H2431       H  0.58199181  0.64881370  0.13937039     0.16400
O2432       O  0.63445286  0.63796037  0.14121202    -0.60500
H2433       H  0.55215468  0.53086699  0.16971678     0.16400
O2434       O  0.49985680  0.54212274  0.16939846    -0.60600
H2435       H  0.49103090  0.52417001  0.15344001     0.43400
H2436       H  0.64660522  0.65151364  0.15950627     0.43300
O2437       O  0.88288499  0.60114163  0.63010909    -0.85600
O2438       O  0.92584964  0.65332886  0.59767682    -0.82600
C2439       C  0.94416758  0.67901597  0.61534602     0.97900
O2440       O  0.97001783  0.68171245  0.62973924    -0.82700
O2441       O  0.99553919  0.65798285  0.67159112    -0.85300
C2442       C  0.97183200  0.64701236  0.69017573     1.02400
O2443       O  0.94282376  0.62039936  0.68421032    -0.78100
O2444       O  0.88776403  0.56308115  0.65586479    -0.78300
C2445       C  0.87051468  0.57728379  0.64798472     1.02300
O2446       O  0.89803523  0.55110924  0.60056820    -0.85600
O2447       O  0.94361576  0.60654725  0.56775816    -0.82700
C2448       C  0.97210853  0.63270222  0.56194566     0.97900
O2449       O  0.99122667  0.65433614  0.58236691    -0.82700
O2450       O  0.51378099  0.62484012  0.62577326    -0.85300
C2451       C  0.51355228  0.60772047  0.64774055     1.02400
O2452       O  0.98995120  0.59848779  0.66584637    -0.78100
O2453       O  0.93785158  0.55044700  0.63050937    -0.78300
C2454       C  0.91339883  0.53554640  0.61142299     1.02300
Cr2455     Cr  0.91508320  0.60362690  0.60075220     1.93700
Cr2456     Cr  0.98982297  0.65185102  0.62705523     1.93200
Cr2457     Cr  0.94021911  0.58538007  0.65699500     1.39100
O2458       O  0.94856059  0.61365667  0.62769192    -1.23300
O2459       O  0.87684845  0.76789582  0.61330542    -0.85600
O2460       O  0.82431997  0.75962705  0.57862572    -0.82600
C2461       C  0.80163023  0.74938704  0.59783429     0.97900
O2462       O  0.80202125  0.77046742  0.61654172    -0.82700
O2463       O  0.82816042  0.82889102  0.65361246    -0.85300
C2464       C  0.84414780  0.82288553  0.67440628     1.02400
O2465       O  0.86911433  0.81853458  0.66899220    -0.78100
O2466       O  0.91802303  0.81027388  0.64027822    -0.78300
C2467       C  0.90201697  0.77855160  0.63147562     1.02300
O2468       O  0.92775568  0.82911256  0.58432174    -0.85600
O2469       O  0.87028961  0.82488496  0.55266295    -0.82700
C2470       C  0.84015089  0.81940980  0.54606069     0.97900
O2471       O  0.81849840  0.81256736  0.56581701    -0.82700
O2472       O  0.84996669  0.86993158  0.60244326    -0.85300
C2473       C  0.87353134  0.89243145  0.61948460     1.02400
O2474       O  0.88874081  0.88383921  0.63931369    -0.78100
O2475       O  0.93246938  0.87320867  0.60902003    -0.78300
C2476       C  0.94563789  0.86064703  0.59301474     1.02300
Cr2477     Cr  0.87459649  0.79738873  0.58379452     1.93700
Cr2478     Cr  0.82722719  0.82042708  0.60976190     1.93200
Cr2479     Cr  0.89980301  0.84473902  0.63782509     1.39100
O2480       O  0.86727509  0.82109102  0.61042893    -1.23300
O2481       O  0.71603825  0.54974805  0.67538664    -0.85600
O2482       O  0.71278298  0.59532731  0.63828609    -0.82600
C2483       C  0.70276334  0.60797416  0.61830358     0.97900
O2484       O  0.67155153  0.59182348  0.60835581    -0.82700
O2485       O  0.67109368  0.53697209  0.58011013    -0.85300
C2486       C  0.66701936  0.50745348  0.57478388     1.02400
O2487       O  0.65733659  0.98511108  0.59464494    -0.78100
O2488       O  0.70731564  0.51223087  0.64011997    -0.78300
C2489       C  0.72722932  0.53475490  0.65926983     1.02300
O2490       O  0.64919266  0.53170159  0.69524246    -0.85600
O2491       O  0.64727874  0.58202052  0.66154978    -0.82700
C2492       C  0.61645691  0.56772159  0.65021609     0.97900
O2493       O  0.60601087  0.54365089  0.63121837    -0.82700
O2494       O  0.60174908  0.99150247  0.59680613    -0.85300
C2495       C  0.58753028  0.96540327  0.61277160     1.02400
O2496       O  0.60389667  0.96364862  0.63553383    -0.78100
O2497       O  0.65481987  0.98731883  0.68253785    -0.78300
C2498       C  0.64935682  0.00441098  0.70181561     1.02300
Cr2499     Cr  0.67954559  0.56230302  0.66548049     1.93700
Cr2500     Cr  0.63909188  0.54029459  0.60645884     1.93200
Cr2501     Cr  0.65594544  0.98998399  0.63835432     1.39100
O2502       O  0.65791568  0.53056163  0.63704883    -1.23300
O2503       O  0.76161401  0.81872297  0.82524792    -0.85600
O2504       O  0.76685324  0.86764332  0.86422116    -0.82600
C2505       C  0.77790318  0.89111930  0.88375727     0.97900
O2506       O  0.80938212  0.90576206  0.89303393    -0.82700
O2507       O  0.80929039  0.85047044  0.91927235    -0.85300
C2508       C  0.81297108  0.82477307  0.92400905     1.02400
O2509       O  0.82211380  0.81182863  0.90380164    -0.78100
O2510       O  0.77169454  0.78925690  0.85863847    -0.78300
C2511       C  0.75122238  0.79159772  0.84002276     1.02300
O2512       O  0.82811393  0.86793351  0.80461802    -0.85600
O2513       O  0.83185658  0.92003542  0.84008648    -0.82700
C2514       C  0.86299929  0.93654816  0.85091839     0.97900
O2515       O  0.87408341  0.92238127  0.86863591    -0.82700
O2516       O  0.87857875  0.87372970  0.90195475    -0.85300
C2517       C  0.89220899  0.86149826  0.88544514     1.02400
O2518       O  0.87529353  0.84394551  0.86253002    -0.78100
O2519       O  0.82397404  0.81818363  0.81591689    -0.78300
C2520       C  0.82883544  0.84109439  0.79729542     1.02300
Cr2521     Cr  0.79892005  0.86787545  0.83557250     1.93700
Cr2522     Cr  0.84130619  0.88585181  0.89339410     1.93200
Cr2523     Cr  0.82314415  0.81866886  0.86017431     1.39100
O2524       O  0.82145476  0.85742699  0.86267543    -1.23300
O2525       O  0.60686572  0.88158627  0.88555698    -0.85600
O2526       O  0.65869970  0.92627372  0.92078135    -0.82600
C2527       C  0.68150177  0.93824132  0.90165044     0.97900
O2528       O  0.68126591  0.95874055  0.88275950    -0.82700
O2529       O  0.65457490  0.99050777  0.84520464    -0.85300
C2530       C  0.63848314  0.96868010  0.82421655     1.02400
O2531       O  0.61397793  0.93907127  0.82953925    -0.78100
O2532       O  0.56545023  0.88147918  0.85816451    -0.78300
C2533       C  0.58165125  0.86625859  0.86749736     1.02300
O2534       O  0.55487807  0.89061990  0.91410781    -0.85600
O2535       O  0.61212067  0.94495475  0.94638103    -0.82700
C2536       C  0.64200570  0.97037877  0.95278524     0.97900
O2537       O  0.66373333  0.98486277  0.93304487    -0.82700
O2538       O  0.63201611  0.50961963  0.89599250    -0.85300
C2539       C  0.60809988  0.50788340  0.87906285     1.02400
O2540       O  0.59298409  0.98378202  0.85933939    -0.78100
O2541       O  0.54909340  0.92893341  0.88903092    -0.78300
C2542       C  0.53618322  0.90307815  0.90478414     1.02300
Cr2543     Cr  0.60827844  0.91306334  0.91511209     1.93700
Cr2544     Cr  0.65533065  0.98323026  0.88904905     1.93200
Cr2545     Cr  0.58278656  0.93398379  0.86066422     1.39100
O2546       O  0.61534169  0.94365850  0.88835019    -1.23300
O2547       O  0.59625953  0.70398857  0.86703852    -0.85600
O2548       O  0.55631146  0.71611810  0.90126328    -0.82600
C2549       C  0.53818033  0.72387905  0.88394742     0.97900
O2550       O  0.51082060  0.70074830  0.87098480    -0.82700
O2551       O  0.98117924  0.65002245  0.83019110    -0.85300
C2552       C  0.50393667  0.66197193  0.81083259     1.02400
O2553       O  0.53268104  0.66333121  0.81545281    -0.78100
O2554       O  0.58833879  0.65964668  0.84122634    -0.78300
C2555       C  0.60705293  0.69119183  0.84874183     1.02300
O2556       O  0.58008674  0.63910407  0.89726161    -0.85600
O2557       O  0.53827317  0.65273889  0.93234532    -0.82700
C2558       C  0.01023838  0.65102929  0.93894027     0.97900
O2559       O  0.99053427  0.65330511  0.91907934    -0.82700
O2560       O  0.96373560  0.59958125  0.87636625    -0.85300
C2561       C  0.96252610  0.58172345  0.85435430     1.02400
O2562       O  0.98520027  0.59525694  0.83536867    -0.78100
O2563       O  0.53852073  0.59842300  0.86834368    -0.78300
C2564       C  0.56362353  0.60790734  0.88674573     1.02300
Cr2565     Cr  0.56507094  0.67600856  0.89778843     1.93700
Cr2566     Cr  0.98938875  0.65080069  0.87441098     1.93200
Cr2567     Cr  0.53571791  0.63095634  0.84226201     1.39100
O2568       O  0.52985034  0.65231407  0.87216541    -1.23300
C2569       C  0.54939880  0.76030290  0.87708110    -0.05700
C2570       C  0.52478869  0.76930853  0.86632565    -0.33100
C2571       C  0.53504589  0.80353214  0.85889642     0.36100
C2572       C  0.57033167  0.82925079  0.86207722    -0.06100
C2573       C  0.59503514  0.81910110  0.86926804    -0.33000
C2574       C  0.58489241  0.78538071  0.87741168     0.36000
H2575       H  0.49735749  0.74997767  0.86453306     0.16400
O2576       O  0.51020822  0.81180582  0.85060694    -0.60500
H2577       H  0.62254781  0.83821256  0.87107651     0.16400
O2578       O  0.60985735  0.77757282  0.88673588    -0.60600
H2579       H  0.62378303  0.78044934  0.86950965     0.43400
H2580       H  0.01059470  0.81297657  0.82890190     0.43300
C2581       C  0.59736654  0.53396338  0.88309905    -0.05700
C2582       C  0.56188199  0.52296544  0.88291855    -0.33100
C2583       C  0.55069393  0.54662480  0.88786387     0.36100
C2584       C  0.57514177  0.58241184  0.89202272    -0.06100
C2585       C  0.61073235  0.59320951  0.89383273    -0.33000
C2586       C  0.62191423  0.56920054  0.88959879     0.36000
H2587       H  0.54267706  0.99581135  0.87912259     0.16400
O2588       O  0.51558512  0.53469700  0.88705931    -0.60500
H2589       H  0.62992846  0.62049539  0.89658700     0.16400
O2590       O  0.65691574  0.58067825  0.89062826    -0.60600
H2591       H  0.66406914  0.58701945  0.87024215     0.43400
H2592       H  0.50875754  0.52877576  0.90756848     0.43300
C2593       C  0.88586818  0.97362227  0.84593695    -0.05700
C2594       C  0.87611373  0.99735101  0.85538311    -0.33100
C2595       C  0.90062756  0.53286822  0.85787594     0.36100
C2596       C  0.93518432  0.54498220  0.85033625    -0.06100
C2597       C  0.94417887  0.52137721  0.83907528    -0.33000
C2598       C  0.92001463  0.98588334  0.83742147     0.36000
H2599       H  0.85003957  0.98813536  0.86248539     0.16400
O2600       O  0.89075081  0.55534616  0.86824008    -0.60500
H2601       H  0.97055241  0.53027762  0.83289263     0.16400
O2602       O  0.93010868  0.96320347  0.82795894    -0.60600
H2603       H  0.94255978  0.96012758  0.84517360     0.43400
H2604       H  0.88355839  0.56341966  0.85051316     0.43300
C2605       C  0.64270239  0.71303261  0.83872110    -0.05700
C2606       C  0.66815297  0.70407810  0.84564591    -0.33100
C2607       C  0.70373757  0.72884460  0.84469442     0.36100
C2608       C  0.71428159  0.76304423  0.83627283    -0.06100
C2609       C  0.68853686  0.77072952  0.82655539    -0.33000
C2610       C  0.65308850  0.74609112  0.82782582     0.36000
H2611       H  0.66055908  0.67865477  0.85392403     0.16400
O2612       O  0.72795291  0.71953108  0.85260863    -0.60500
H2613       H  0.69580132  0.79656331  0.81957898     0.16400
O2614       O  0.62870914  0.75512479  0.81978438    -0.60600
H2615       H  0.62424485  0.75006939  0.79836103     0.43400
H2616       H  0.72913135  0.72003297  0.87437152     0.43300
C2617       C  0.75483746  0.90360861  0.89324996    -0.05700
C2618       C  0.76611139  0.93906862  0.89201167    -0.33100
C2619       C  0.74263272  0.95094021  0.89523566     0.36100
C2620       C  0.70777730  0.92738251  0.90111956    -0.06100
C2621       C  0.69722315  0.89227423  0.90453333    -0.33000
C2622       C  0.72025976  0.88018003  0.89991729     0.36000
H2623       H  0.79264044  0.95733280  0.88679138     0.16400
O2624       O  0.75396325  0.98555671  0.89265714    -0.60500
H2625       H  0.67054334  0.87386955  0.90925253     0.16400
O2626       O  0.70878499  0.84544806  0.90183458    -0.60600
H2627       H  0.69632055  0.83493608  0.88268791     0.43400
H2628       H  0.75349346  0.98919394  0.87123766     0.43300
C2629       C  0.49816683  0.88616427  0.90809252    -0.05700
C2630       C  0.97593767  0.85649976  0.89062508    -0.33100
C2631       C  0.94126650  0.84758820  0.88328679     0.36100
C2632       C  0.92798648  0.86814214  0.89398460    -0.06100
C2633       C  0.94959741  0.89614919  0.91347087    -0.33000
C2634       C  0.98431259  0.90538763  0.92018176     0.36000
H2635       H  0.48627349  0.84180909  0.88066682     0.16400
O2636       O  0.92088957  0.81910530  0.86532233    -0.60500
H2637       H  0.94017162  0.91225677  0.92238412     0.16400
O2638       O  0.00536824  0.93503680  0.93666422    -0.60600
H2639       H  0.00661366  0.92705968  0.95669061     0.43400
H2640       H  0.92685479  0.82727800  0.84507562     0.43300
C2641       C  0.64671463  0.99459571  0.73297455    -0.05700
C2642       C  0.65946762  0.52083487  0.75501052    -0.33100
C2643       C  0.65913922  0.01309233  0.78473924     0.36100
C2644       C  0.64511378  0.97841634  0.79309300    -0.06100
C2645       C  0.63279485  0.95221086  0.77098725    -0.33000
C2646       C  0.63389778  0.96010273  0.74119502     0.36000
H2647       H  0.67007683  0.54766671  0.74917970     0.16400
O2648       O  0.67078276  0.53948805  0.80539723    -0.60500
H2649       H  0.62159601  0.92531908  0.77681566     0.16400
O2650       O  0.62081533  0.93372640  0.72039770    -0.60600
H2651       H  0.64018520  0.92934664  0.71703135     0.43400
H2652       H  0.69603880  0.54807871  0.80857302     0.43300
C2653       C  0.65260570  0.98033286  0.98382165    -0.05700
C2654       C  0.63928623  0.95430693  0.00459260    -0.33100
C2655       C  0.64698522  0.96242657  0.53446031     0.36100
C2656       C  0.66755852  0.99734850  0.54409955    -0.06100
C2657       C  0.68295226  0.52316196  0.52317112    -0.33000
C2658       C  0.67583319  0.51479036  0.99313598     0.36000
H2659       H  0.62227454  0.92745661  0.99766348     0.16400
O2660       O  0.63178101  0.93623048  0.55395552    -0.60500
H2661       H  0.69912319  0.55011627  0.53011606     0.16400
O2662       O  0.69036907  0.54062412  0.97324373    -0.60600
H2663       H  0.67299008  0.54803715  0.96940045     0.43400
H2664       H  0.64888162  0.92847209  0.55779997     0.43300
C2665       C  0.82931362  0.81686292  0.51491026    -0.05700
C2666       C  0.84561276  0.80678538  0.49457591    -0.33100
C2667       C  0.83755819  0.80541753  0.96463925     0.36100
C2668       C  0.81310202  0.81471835  0.95454220    -0.06100
C2669       C  0.79498968  0.82245409  0.97497010    -0.33000
C2670       C  0.80290825  0.82350480  0.50506057     0.36000
H2671       H  0.86540605  0.80070146  0.50183944     0.16400
O2672       O  0.85644316  0.79855066  0.94547568    -0.60500
H2673       H  0.77618523  0.82978930  0.96750894     0.16400
O2674       O  0.78601123  0.83275873  0.52442559    -0.60600
H2675       H  0.80045957  0.85831888  0.52682125     0.43400
H2676       H  0.84369478  0.77298082  0.94275194     0.43300
C2677       C  0.83238629  0.83539154  0.76598159    -0.05700
C2678       C  0.81960032  0.84928555  0.74450857    -0.33100
C2679       C  0.82155742  0.84395685  0.71458345     0.36100
C2680       C  0.83665416  0.82449197  0.70552413    -0.06100
C2681       C  0.84902703  0.81020420  0.72704690    -0.33000
C2682       C  0.84676632  0.81531028  0.75700845     0.36000
H2683       H  0.80791190  0.86438846  0.75092933     0.16400
O2684       O  0.80959714  0.85883989  0.69450282    -0.60500
H2685       H  0.86119628  0.79554757  0.72065580     0.16400
O2686       O  0.86033291  0.80210453  0.77727786    -0.60600
H2687       H  0.84176092  0.77770089  0.77948118     0.43400
H2688       H  0.82988634  0.88202126  0.69118041     0.43300
C2689       C  0.77490445  0.71263793  0.59870258    -0.05700
C2690       C  0.78460245  0.68734302  0.59608195    -0.33100
C2691       C  0.76098643  0.65271617  0.60170221     0.36100
C2692       C  0.72677733  0.64293882  0.60859063    -0.06100
C2693       C  0.71637553  0.66777293  0.60886801    -0.33000
C2694       C  0.74041947  0.70262690  0.60477387     0.36000
H2695       H  0.81101726  0.69472951  0.59118737     0.16400
O2696       O  0.77183462  0.62888165  0.60128342    -0.60500
H2697       H  0.69007772  0.66047030  0.61388766     0.16400
O2698       O  0.73002768  0.72672848  0.60673991    -0.60600
H2699       H  0.73052342  0.73150115  0.62807538     0.43400
H2700       H  0.76296418  0.61638668  0.58202260     0.43300
C2701       C  0.55204723  0.93683096  0.60350943    -0.05700
C2702       C  0.54124222  0.90244550  0.61068441    -0.33100
C2703       C  0.50730608  0.87560905  0.60287766     0.36100
C2704       C  0.98315855  0.88301449  0.58866566    -0.06100
C2705       C  0.99465630  0.91694739  0.57981397    -0.33000
C2706       C  0.52877894  0.94358287  0.58665056     0.36000
H2707       H  0.55890470  0.89643003  0.62285541     0.16400
O2708       O  0.99704325  0.84281927  0.61182617    -0.62900
H2709       H  0.97629204  0.92335942  0.56946046     0.16400
O2710       O  0.53807670  0.97666267  0.57888255    -0.60600
H2711       H  0.54469002  0.97827116  0.55820915     0.43400
H2712       H  0.50059892  0.83111007  0.59491576     0.43300
C2713       C  0.99566218  0.66956282  0.78112171    -0.05700
C2714       C  0.96084231  0.65396924  0.77075745    -0.33100
C2715       C  0.95240929  0.64984115  0.74058483     0.36100
C2716       C  0.97918793  0.66159353  0.72047977    -0.06100
C2717       C  0.51384030  0.68217346  0.73100266    -0.33000
C2718       C  0.52219670  0.68644706  0.76112909     0.36000
H2719       H  0.94003005  0.64194534  0.78580281     0.16400
O2720       O  0.91795603  0.63236040  0.73104765    -0.60500
H2721       H  0.53477993  0.69240373  0.71600434     0.16400
O2722       O  0.55660839  0.70441016  0.77060643    -0.60600
H2723       H  0.56097694  0.72759611  0.77692682     0.43400
H2724       H  0.90949949  0.60762020  0.73499510     0.43300
C2725       C  0.98213404  0.63808437  0.53050452    -0.05700
C2726       C  0.51722452  0.65662562  0.52337033    -0.33100
C2727       C  0.52665550  0.66070078  0.99386179     0.36100
C2728       C  0.00084694  0.64693617  0.97051444    -0.06100
C2729       C  0.96580552  0.62936417  0.97766925    -0.33000
C2730       C  0.95639130  0.62470934  0.50708775     0.36000
H2731       H  0.53752236  0.66756754  0.54073039     0.16400
O2732       O  0.56126692  0.67933748  0.98811565    -0.60500
H2733       H  0.94546566  0.61873194  0.96033182     0.16400
O2734       O  0.92168442  0.60720766  0.51261856    -0.60600
H2735       H  0.91485576  0.62519472  0.51323543     0.43400
H2736       H  0.56987409  0.66278218  0.99024787     0.43300
C2737       C  0.93430062  0.70533761  0.62151374    -0.05700
C2738       C  0.89924832  0.69428075  0.62513480    -0.33100
C2739       C  0.88908661  0.71772223  0.63388664     0.36100
C2740       C  0.91384671  0.75346547  0.63750711    -0.06100
C2741       C  0.94919626  0.76396896  0.63677272    -0.33000
C2742       C  0.95958407  0.74016693  0.62894531     0.36000
H2743       H  0.87962758  0.66722653  0.62156152     0.16400
O2744       O  0.85435808  0.70584942  0.63680287    -0.60500
H2745       H  0.96864187  0.79087278  0.64053480     0.16400
O2746       O  0.99437558  0.75161748  0.62697354    -0.60600
H2747       H  0.00343444  0.75297159  0.64747868     0.43400
H2748       H  0.85037991  0.70001882  0.65775657     0.43300
C2749       C  0.88336279  0.92900888  0.61547791    -0.05700
C2750       C  0.85757398  0.93797770  0.60939535    -0.33100
C2751       C  0.86666755  0.97261288  0.60478994     0.36100
C2752       C  0.90197660  0.99861404  0.60553726    -0.06100
C2753       C  0.92748792  0.98885520  0.60904091    -0.33000
C2754       C  0.91851742  0.95474594  0.61475677     0.36000
H2755       H  0.83029628  0.91824571  0.60923786     0.16400
O2756       O  0.84100595  0.98101337  0.60195330    -0.60500
H2757       H  0.95483500  0.50836364  0.60920175     0.16400
O2758       O  0.94436461  0.94675137  0.61906681    -0.60600
H2759       H  0.95153259  0.95172404  0.64023031     0.43400
H2760       H  0.83383686  0.97754718  0.58075343     0.43300
C2761       C  0.76434320  0.54482879  0.66212576    -0.05700
C2762       C  0.77441670  0.51987568  0.65863079    -0.33100
C2763       C  0.80966127  0.52988898  0.65703167     0.36100
C2764       C  0.83509763  0.56531664  0.65760675    -0.06100
C2765       C  0.82513754  0.59005095  0.66271635    -0.33000
C2766       C  0.79019642  0.58004416  0.66551178     0.36000
H2767       H  0.75485275  0.99266673  0.65627014     0.16400
O2768       O  0.81855118  0.50507130  0.65222366    -0.60500
H2769       H  0.84441625  0.61742715  0.66325112     0.16400
O2770       O  0.78137295  0.60518638  0.66869353    -0.60600
H2771       H  0.78353451  0.61018708  0.69013431     0.43400
H2772       H  0.82345732  0.99900535  0.67204792     0.43300
C2773       C  0.54108831  0.59901687  0.65277180    -0.05700
C2774       C  0.57547362  0.62325751  0.64661387    -0.33100
C2775       C  0.60151907  0.61446581  0.64897080     0.36100
C2776       C  0.59297421  0.58071089  0.65654096    -0.06100
C2777       C  0.55901340  0.55702861  0.66408101    -0.33000
C2778       C  0.53314800  0.56610775  0.66262508     0.36000
H2779       H  0.58199095  0.64881337  0.63937032     0.16400
O2780       O  0.63445184  0.63795994  0.64121127    -0.60500
H2781       H  0.55215416  0.53086699  0.66971727     0.16400
O2782       O  0.49985642  0.54212290  0.66939967    -0.60600
H2783       H  0.49103003  0.52417073  0.65344125     0.43400
H2784       H  0.64660492  0.65151303  0.65950574     0.43300
loop_ 
_geom_bond_atom_site_label_1 
_geom_bond_atom_site_label_2 
_geom_bond_distance 
_geom_bond_site_symmetry_2 
_ccdc_geom_bond_type 
O1          Cr19   1.965       .  S
O1            C9   1.249       .  A
O2          Cr19   2.029       .  S
O2            C3   1.275       .  A
C3            O4   1.250       .  A
C3          C301   1.476       .  S
O4          Cr20   1.938       .  S
O5          Cr20   2.036       .  S
O5            C6   1.277       .  A
C6            O7   1.256       .  A
C6          C280   1.477       .  S
O7          Cr21   1.947       .  S
O8          Cr21   2.023       .  S
O8            C9   1.260       .  A
C9          C328   1.475       .  S
O10         Cr19   2.071       .  S
O10          C18   1.283       .  A
O11         Cr19   1.973       .  S
O11          C12   1.259       .  A
C12          O13   1.274       .  A
C12         C289   1.504       .  S
O13         Cr20   2.044       .  S
O14       Cr1412   1.972   1_455  S
O14          C15   1.260       .  A
C15        O1408   1.263   1_455  A
C15         C337   1.469       .  S
O16         Cr21   2.005       .  S
O16        C1407   1.263       .  A
O17         Cr21   1.927       .  S
O17          C18   1.253       .  A
C18        C1012   1.481   1_545  S
Cr19         O22   1.760       .  S
Cr20       O1406   1.972       .  S
Cr20         O22   1.772       .  S
Cr21         O22   1.762       .  S
O23         Cr41   1.921       .  S
O23          C31   1.245       .  A
O24         Cr41   2.016       .  S
O24          C25   1.269       .  A
C25          O26   1.261       .  A
C25         C253   1.467       .  S
O26         Cr42   1.963       .  S
O27         Cr42   2.029       .  S
O27          C28   1.270       .  A
C28          O29   1.254       .  A
C28         C244   1.481       .  S
O29         Cr43   1.957       .  S
O30         Cr43   2.070       .  S
O30          C31   1.278       .  A
C31         C304   1.480       .  S
O32         Cr41   2.057       .  S
O32          C40   1.271       .  A
O33         Cr41   1.946       .  S
O33          C34   1.258       .  A
C34          O35   1.270       .  A
C34         C229   1.466       .  S
O35         Cr42   2.020       .  S
O36         Cr42   1.952       .  S
O36          C37   1.256       .  A
C37          O38   1.278       .  A
C37         C313   1.478       .  S
O38         Cr43   2.040       .  S
O39         Cr43   1.943       .  S
O39          C40   1.246       .  A
C40         C268   1.476       .  S
Cr41         O44   1.752       .  S
Cr42         O44   1.766       .  S
Cr43         O44   1.752       .  S
O45         Cr63   2.002       .  S
O45          C53   1.264       .  A
O46         Cr63   1.970       .  S
O46          C47   1.253       .  A
C47          O48   1.262       .  A
C47         C256   1.465       .  S
O48         Cr64   2.009       .  S
O49         Cr64   1.962       .  S
O49          C50   1.258       .  A
C50         O747   1.269   1_545  A
C50         C916   1.474   1_545  S
O51         Cr65   2.011       .  S
O51         C746   1.269       .  A
O52        Cr761   1.980   1_545  S
O52          C53   1.261       .  A
C53         C325   1.477       .  S
O54         Cr63   1.963       .  S
O54         C758   1.260       .  A
O55         Cr63   2.029       .  S
O55          C56   1.270       .  A
C56          O57   1.256       .  A
C56         C340   1.464       .  S
O57         Cr64   1.956       .  S
O58        Cr760   1.999       .  S
O58          C59   1.263       .  A
C59          O60   1.268       .  A
C59         C265   1.488       .  S
O60         Cr65   2.000       .  S
O61         Cr65   2.021       .  S
O61          C62   1.270       .  A
C62         O750   1.260       .  A
C62         C205   1.481       .  S
Cr63         O66   1.768       .  S
Cr64        O754   1.999   1_545  S
Cr64         O66   1.763       .  S
Cr65        O748   1.980       .  S
Cr65        O762   1.771       .  S
O66        Cr761   1.771   1_545  S
O67         Cr85   2.015       .  S
O67          C75   1.267       .  A
O68         Cr85   1.971       .  S
O68          C69   1.254       .  A
C69          O70   1.263       .  A
C69         C181   1.470       .  S
O70         Cr86   2.018       .  S
O71         Cr86   1.954       .  S
O71          C72   1.256       .  A
C72          O73   1.270       .  A
C72         C232   1.466       .  S
O73         Cr87   2.013       .  S
O74         Cr87   1.984       .  S
O74          C75   1.262       .  A
C75         C172   1.492       .  S
O76         Cr85   1.958       .  S
O76          C84   1.259       .  A
O77         Cr85   2.039       .  S
O77          C78   1.273       .  A
C78          O79   1.257       .  A
C78         C157   1.469       .  S
O79         Cr86   1.957       .  S
O80         Cr86   2.011       .  S
O80          C81   1.265       .  A
C81          O82   1.268       .  A
C81         C196   1.498       .  S
O82         Cr87   2.004       .  S
O83         Cr87   2.021       .  S
O83          C84   1.271       .  A
C84         C241   1.479       .  S
Cr85         O88   1.766       .  S
Cr86         O88   1.763       .  S
Cr87         O88   1.773       .  S
O89        Cr107   1.920       .  S
O89          C97   1.245       .  A
O90        Cr107   2.016       .  S
O90          C91   1.269       .  A
C91          O92   1.263       .  A
C91         C184   1.474       .  S
O92        Cr108   1.975       .  S
O93        Cr108   2.029       .  S
O93          C94   1.270       .  A
C94          O95   1.254       .  A
C94         C208   1.484       .  S
O95        Cr109   1.961       .  S
O96        Cr109   2.069       .  S
O96          C97   1.277       .  A
C97         C136   1.482       .  S
O98        Cr107   2.061       .  S
O98         C106   1.272       .  A
O99        Cr107   1.952       .  S
O99         C100   1.261       .  A
C100        O101   1.271       .  A
C100        C217   1.467       .  S
O101       Cr108   2.020       .  S
O102       Cr804   1.954   1_545  S
O102        C103   1.257       .  A
C103        O800   1.278   1_545  A
C103        C145   1.477       .  S
O104       Cr109   2.036       .  S
O104        C799   1.278       .  A
O105       Cr109   1.949       .  S
O105        C106   1.247       .  A
C106        C193   1.481   1_455  S
Cr107       O110   1.752       .  S
Cr108       O798   1.954       .  S
Cr108       O110   1.768       .  S
Cr109       O110   1.758       .  S
O111       Cr129   1.973       .  S
O111        C119   1.249       .  A
O112       Cr129   2.022       .  S
O112        C113   1.274       .  A
C113        O114   1.252       .  A
C113        C133   1.482       .  S
O114      Cr1522   1.946   1_455  S
O115       Cr130   2.031       .  S
O115       C1508   1.275       .  A
C116        O117   1.258       .  A
C116       O1507   1.275   1_455  A
C116       C1669   1.474   1_455  S
O117       Cr131   1.949       .  S
O118       Cr131   2.030       .  S
O118        C119   1.260       .  A
C119        C169   1.479       .  S
O120       Cr129   2.066       .  S
O120        C128   1.283       .  A
O121       Cr129   1.979       .  S
O121       C1514   1.260       .  A
C122        O123   1.273       .  A
C122       O1513   1.260       .  A
C122        C292   1.503       .  S
O123       Cr130   2.037       .  S
O124       Cr130   1.982       .  S
O124        C125   1.262       .  A
C125        O126   1.265       .  A
C125        C160   1.476       .  S
O126      Cr1523   2.007       .  S
O127       Cr131   1.930       .  S
O127        C128   1.254       .  A
C128        C148   1.481       .  S
Cr129       O132   1.763       .  S
Cr130      O1506   1.946       .  S
Cr130      O1524   1.774       .  S
Cr131      O1518   2.007   1_455  S
Cr131       O132   1.763       .  S
O132      Cr1522   1.774   1_455  S
C133        C134   1.414       .  A
C133        C138   1.403       .  A
C134        C135   1.406       .  A
C134        H139   1.083   1_455  S
C135        C136   1.404       .  A
C135        O140   1.370       .  S
C136        C137   1.411       .  A
C137        C138   1.395       .  A
C137        H141   1.084       .  S
C138        O142   1.373       .  S
O140       H1536   0.992       .  S
O142        H143   0.990       .  S
H144       O1532   0.992       .  S
C145        C146   1.398       .  A
C145        C150   1.414       .  A
C146        C147   1.397       .  A
C146        H847   1.084   1_545  S
C147        C148   1.417       .  A
C147        O152   1.372       .  S
C148        C149   1.403       .  A
C149        C150   1.406       .  A
C149        H153   1.084       .  S
C150        O154   1.372       .  S
H151        C842   1.084       .  S
O152        H156   0.991       .  S
O154        H155   0.991       .  S
C157        C158   1.404       .  A
C157        C162   1.405       .  A
C158        C855   1.403       .  A
C158        H163   1.083       .  S
C159        C160   1.409       .  A
C159        C854   1.403   1_545  A
C159        O164   1.371       .  S
C160        C161   1.404       .  A
C161        C858   1.398   1_545  A
C161        H165   1.084       .  S
C162        C857   1.398       .  A
C162        O166   1.372       .  S
O164        H168   0.991       .  S
O166        H167   0.991       .  S
C169        C170   1.402       .  A
C169        C174   1.407       .  A
C170        C171   1.407       .  A
C170        H175   1.084       .  S
C171        C172   1.414       .  A
C171        O176   1.372       .  S
C172        C173   1.407       .  A
C173        C174   1.402       .  A
C173        H177   1.083       .  S
C174        O178   1.371       .  S
O176        H180   0.991       .  S
O178        H179   0.991       .  S
C181        C182   1.403       .  A
C181        C186   1.407       .  A
C182        C183   1.401       .  A
C182        H187   1.083       .  S
C183        C184   1.408       .  A
C183        O188   1.372       .  S
C184        C185   1.404       .  A
C185        C186   1.400       .  A
C185        H189   1.083       .  S
C186        O190   1.372       .  S
O188        H192   0.992       .  S
O190        H191   0.992       .  S
C193       C1586   1.406       .  A
C193       C1590   1.406       .  A
C194        C195   1.410       .  A
C194       C1585   1.406       .  A
C194       H1591   1.080       .  S
C195        C196   1.412       .  A
C195        O200   1.371       .  S
C196        C197   1.410       .  A
C197        C198   1.403       .  A
C197        H201   1.083       .  S
C198       C1585   1.406       .  A
C198        O202   1.372       .  S
H199       C1586   1.080       .  S
O200        H204   0.991       .  S
O202        H203   0.991       .  S
C205        C210   1.407       .  A
C205        C902   1.407       .  A
C206        C901   1.407   1_545  A
C206        C903   1.400       .  A
C206        H211   1.084       .  S
C207        C208   1.410       .  A
C207        C902   1.400       .  A
C207        O908   1.372       .  S
C208        C209   1.409       .  A
C209        C210   1.402       .  A
C209        H213   1.083       .  S
C210        O214   1.371       .  S
O212        C903   1.372       .  S
O212        H216   0.992       .  S
O214        H215   0.992       .  S
C217        C218   1.402       .  A
C217        C918   1.406       .  A
C218        C567   1.391       .  A
C218        H223   1.084       .  S
C219        C220   1.410       .  A
C219        C566   1.391       .  A
C219        O224   1.372       .  S
C220        C746   1.474       .  S
C220        C917   1.407       .  A
C221        C916   1.407   1_545  A
C221        C570   1.399   1_554  A
C221        H225   1.084       .  S
C222        C913   1.406   1_545  A
C222        C569   1.399       .  A
C222        O226   1.372       .  S
O224        H228   0.992       .  S
O226        H227   0.992       .  S
C229        C230   1.404   1_554  A
C229        C234   1.406       .  A
C230        C579   1.390       .  A
C230        H235   1.084   1_556  S
C231        C232   1.407       .  A
C231        C578   1.390       .  A
C231        O236   1.372       .  S
C232        C233   1.406       .  A
C233        C582   1.397       .  A
C233        H237   1.084       .  S
C234        C581   1.397   1_554  A
C234        O238   1.372       .  S
O236        H240   0.992       .  S
O238        H239   0.992       .  S
C241        C242   1.407       .  A
C241        C246   1.406       .  A
C242        C243   1.398       .  A
C242        H247   1.084       .  S
C243        C244   1.409       .  A
C243        O248   1.372       .  S
C244        C245   1.409       .  A
C245        C246   1.401       .  A
C245        H249   1.084       .  S
C246        O250   1.372       .  S
O248        H252   0.992       .  S
O250        H251   0.992       .  S
C253        C254   1.403       .  A
C253        C258   1.406       .  A
C254        C255   1.398       .  A
C254        H259   1.083       .  S
C255        C256   1.407       .  A
C255        O260   1.372       .  S
C256        C257   1.400       .  A
C257        C258   1.396       .  A
C257        H261   1.081       .  S
C258        O262   1.372       .  S
O260        H264   0.992       .  S
O262        H263   0.992       .  S
C265        C266   1.404       .  A
C265        C270   1.415       .  A
C266        C267   1.405       .  A
C266        H271   1.083       .  S
C267       C1660   1.408   1_455  A
C267       O1664   1.367   1_455  S
C268        C269   1.402       .  A
C268       C1659   1.408       .  A
C269       C1662   1.400       .  A
C269        H273   1.084       .  S
C270       C1661   1.400   1_455  A
C270        O274   1.372       .  S
O272       C1659   1.367       .  S
O272       H1668   0.992       .  S
O274        H275   0.992       .  S
H276       O1664   0.992   1_455  S
C277       C1508   1.474       .  S
C277        C278   1.400       .  A
C277       C1674   1.413       .  A
C278        C279   1.398       .  A
C278        H283   1.084       .  S
C279        C280   1.416       .  A
C279        O284   1.373       .  S
C280       C1673   1.401       .  A
C281        C282   1.395       .  A
C281       C1672   1.401   1_455  A
C281        H285   1.083       .  S
C282       C1669   1.413   1_455  A
C282        O286   1.371       .  S
O284        H288   0.992       .  S
O286        H287   0.992       .  S
C289        C294   1.419       .  A
C289       C1682   1.406       .  A
C290       C1681   1.406   1_455  A
C290        C639   1.412   1_554  A
C290        H295   1.083       .  S
C291        C638   1.412       .  A
C291       C1684   1.418       .  A
C291        O296   1.372       .  S
C292        C293   1.403       .  A
C292       C1683   1.418       .  A
C293        C642   1.408       .  A
C293        H297   1.083       .  S
C294        C641   1.408   1_554  A
C294        O298   1.371       .  S
O296        H300   0.992       .  S
O298        H299   0.992       .  S
C301        C302   1.397       .  A
C301        C306   1.416       .  A
C302        C303   1.395       .  A
C302        H307   1.084       .  S
C303        C304   1.416       .  A
C303        O308   1.371       .  S
C304        C305   1.399       .  A
C305        C306   1.405       .  A
C305        H309   1.078       .  S
C306        O310   1.372       .  S
O308        H312   0.991       .  S
O310        H311   0.992       .  S
C313        C314   1.410       .  A
C313        C318   1.402       .  A
C314        C315   1.408       .  A
C314        H319   1.084       .  S
C315        C316   1.407       .  A
C315        O320   1.371       .  S
C316        C714   1.481       .  S
C316        C317   1.409       .  A
C317        C318   1.396       .  A
C317       H1017   1.083       .  S
C318        O322   1.372       .  S
O320        H324   0.992       .  S
H321       C1013   1.083   1_545  S
O322        H323   0.992       .  S
C325        C326   1.405       .  A
C325        C330   1.409       .  A
C326        C327   1.403       .  A
C326       H1027   1.084   1_545  S
C327        C328   1.408       .  A
C327        O332   1.370       .  S
C328        C329   1.403       .  A
C329        C330   1.397       .  A
C329        H333   1.084       .  S
C330        O334   1.372       .  S
H331       C1022   1.084       .  S
O332       H1032   0.992   1_545  S
O334        H335   0.992       .  S
H336       O1028   0.992       .  S
C337        C338   1.402       .  A
C337        C342   1.409       .  A
C338        C339   1.398       .  A
C338        H343   1.084       .  S
C339        C340   1.406       .  A
C339        O344   1.370       .  S
C340        C341   1.401       .  A
C341        C342   1.398       .  A
C341        H345   1.084       .  S
C342        O346   1.373   1_455  S
O344        H348   0.992       .  S
O346        H347   0.991       .  S
O349       Cr367   1.965       .  S
O349        C357   1.249       .  A
O350       Cr367   2.029       .  S
O350        C351   1.275       .  A
C351        O352   1.250       .  A
C351        C649   1.476       .  S
O352       Cr368   1.938       .  S
O353       Cr368   2.036       .  S
O353        C354   1.277       .  A
C354        O355   1.256       .  A
C354        C628   1.477       .  S
O355       Cr369   1.947       .  S
O356       Cr369   2.023       .  S
O356        C357   1.260       .  A
C357        C676   1.475       .  S
O358       Cr367   2.071       .  S
O358        C366   1.283       .  A
O359       Cr367   1.973       .  S
O359        C360   1.259       .  A
C360        O361   1.274       .  A
C360        C637   1.504       .  S
O361       Cr368   2.044       .  S
O362      Cr1760   1.972   1_455  S
O362        C363   1.260       .  A
C363       O1756   1.263   1_455  A
C363        C685   1.469       .  S
O364       Cr369   2.005       .  S
O364       C1755   1.263       .  A
O365       Cr369   1.927       .  S
O365        C366   1.253       .  A
C366       C1360   1.481   1_545  S
Cr367       O370   1.760       .  S
Cr368      O1754   1.972       .  S
Cr368       O370   1.772       .  S
Cr369       O370   1.762       .  S
O371       Cr389   1.921       .  S
O371        C379   1.245       .  A
O372       Cr389   2.016       .  S
O372        C373   1.269       .  A
C373        O374   1.261       .  A
C373        C601   1.467       .  S
O374       Cr390   1.963       .  S
O375       Cr390   2.029       .  S
O375        C376   1.270       .  A
C376        O377   1.254       .  A
C376        C592   1.481       .  S
O377       Cr391   1.957       .  S
O378       Cr391   2.070       .  S
O378        C379   1.278       .  A
C379        C652   1.480       .  S
O380       Cr389   2.057       .  S
O380        C388   1.271       .  A
O381       Cr389   1.946       .  S
O381        C382   1.258       .  A
C382        O383   1.270       .  A
C382        C577   1.466       .  S
O383       Cr390   2.020       .  S
O384       Cr390   1.952       .  S
O384        C385   1.256       .  A
C385        O386   1.278       .  A
C385        C661   1.478       .  S
O386       Cr391   2.040       .  S
O387       Cr391   1.943       .  S
O387        C388   1.246       .  A
C388        C616   1.476       .  S
Cr389       O392   1.752       .  S
Cr390       O392   1.766       .  S
Cr391       O392   1.752       .  S
O393       Cr411   2.002       .  S
O393        C401   1.264       .  A
O394       Cr411   1.970       .  S
O394        C395   1.253       .  A
C395        O396   1.262       .  A
C395        C604   1.465       .  S
O396       Cr412   2.009       .  S
O397       Cr412   1.962       .  S
O397        C398   1.258       .  A
C398       O1095   1.269   1_545  A
C398       C1264   1.474   1_545  S
O399       Cr413   2.011       .  S
O399       C1094   1.269       .  A
O400      Cr1109   1.980   1_545  S
O400        C401   1.261       .  A
C401        C673   1.477       .  S
O402       Cr411   1.963       .  S
O402       C1106   1.260       .  A
O403       Cr411   2.029       .  S
O403        C404   1.270       .  A
C404        O405   1.256       .  A
C404        C688   1.464       .  S
O405       Cr412   1.956       .  S
O406      Cr1108   1.999       .  S
O406        C407   1.263       .  A
C407        O408   1.268       .  A
C407        C613   1.488       .  S
O408       Cr413   2.000       .  S
O409       Cr413   2.021       .  S
O409        C410   1.270       .  A
C410       O1098   1.260       .  A
C410        C553   1.481       .  S
Cr411       O414   1.768       .  S
Cr412      O1102   1.999   1_545  S
Cr412       O414   1.763       .  S
Cr413      O1096   1.980       .  S
Cr413      O1110   1.771       .  S
O414      Cr1109   1.771   1_545  S
O415       Cr433   2.015       .  S
O415        C423   1.267       .  A
O416       Cr433   1.971       .  S
O416        C417   1.254       .  A
C417        O418   1.263       .  A
C417        C529   1.470       .  S
O418       Cr434   2.018       .  S
O419       Cr434   1.954       .  S
O419        C420   1.256       .  A
C420        O421   1.270       .  A
C420        C580   1.466       .  S
O421       Cr435   2.013       .  S
O422       Cr435   1.984       .  S
O422        C423   1.262       .  A
C423        C520   1.492       .  S
O424       Cr433   1.958       .  S
O424        C432   1.259       .  A
O425       Cr433   2.039       .  S
O425        C426   1.273       .  A
C426        O427   1.257       .  A
C426        C505   1.469       .  S
O427       Cr434   1.957       .  S
O428       Cr434   2.011       .  S
O428        C429   1.265       .  A
C429        O430   1.268       .  A
C429        C544   1.498       .  S
O430       Cr435   2.004       .  S
O431       Cr435   2.021       .  S
O431        C432   1.271       .  A
C432        C589   1.479       .  S
Cr433       O436   1.766       .  S
Cr434       O436   1.763       .  S
Cr435       O436   1.773       .  S
O437       Cr455   1.920       .  S
O437        C445   1.245       .  A
O438       Cr455   2.016       .  S
O438        C439   1.269       .  A
C439        O440   1.263       .  A
C439        C532   1.474       .  S
O440       Cr456   1.975       .  S
O441       Cr456   2.029       .  S
O441        C442   1.270       .  A
C442        O443   1.254       .  A
C442        C556   1.484       .  S
O443       Cr457   1.961       .  S
O444       Cr457   2.069       .  S
O444        C445   1.277       .  A
C445        C484   1.482       .  S
O446       Cr455   2.061       .  S
O446        C454   1.272       .  A
O447       Cr455   1.952       .  S
O447        C448   1.261       .  A
C448        O449   1.271       .  A
C448        C565   1.467       .  S
O449       Cr456   2.020       .  S
O450      Cr1152   1.954   1_545  S
O450        C451   1.257       .  A
C451       O1148   1.278   1_545  A
C451        C493   1.477       .  S
O452       Cr457   2.036       .  S
O452       C1147   1.278       .  A
O453       Cr457   1.949       .  S
O453        C454   1.247       .  A
C454        C541   1.481   1_455  S
Cr455       O458   1.752       .  S
Cr456      O1146   1.954       .  S
Cr456       O458   1.768       .  S
Cr457       O458   1.758       .  S
O459       Cr477   1.973       .  S
O459        C467   1.249       .  A
O460       Cr477   2.022       .  S
O460        C461   1.274       .  A
C461        O462   1.252       .  A
C461        C481   1.482       .  S
O462      Cr1870   1.946   1_455  S
O463       Cr478   2.031       .  S
O463       C1856   1.275       .  A
C464       O1855   1.275   1_455  A
C464        O465   1.258       .  A
C464       C2017   1.474   1_455  S
O465       Cr479   1.949       .  S
O466       Cr479   2.030       .  S
O466        C467   1.260       .  A
C467        C517   1.479       .  S
O468       Cr477   2.066       .  S
O468        C476   1.283       .  A
O469       Cr477   1.979       .  S
O469       C1862   1.260       .  A
C470       O1861   1.260       .  A
C470        O471   1.273       .  A
C470        C640   1.503       .  S
O471       Cr478   2.037       .  S
O472       Cr478   1.982       .  S
O472        C473   1.262       .  A
C473        O474   1.265       .  A
C473        C508   1.476       .  S
O474      Cr1871   2.007       .  S
O475       Cr479   1.930       .  S
O475        C476   1.254       .  A
C476        C496   1.481       .  S
Cr477       O480   1.763       .  S
Cr478      O1854   1.946       .  S
Cr478      O1872   1.774       .  S
Cr479      O1866   2.007   1_455  S
Cr479       O480   1.763       .  S
O480      Cr1870   1.774   1_455  S
C481        C482   1.414       .  A
C481        C486   1.403       .  A
C482        C483   1.406       .  A
C482        H487   1.083   1_455  S
C483        C484   1.404       .  A
C483        O488   1.370       .  S
C484        C485   1.411       .  A
C485        C486   1.395       .  A
C485        H489   1.084       .  S
C486        O490   1.373       .  S
O488       H1884   0.992       .  S
O490        H491   0.990       .  S
H492       O1880   0.992       .  S
C493        C494   1.398       .  A
C493        C498   1.414       .  A
C494        C495   1.397       .  A
C494       H1195   1.084   1_545  S
C495        C496   1.417       .  A
C495        O500   1.372       .  S
C496        C497   1.403       .  A
C497        C498   1.406       .  A
C497        H501   1.084       .  S
C498        O502   1.372       .  S
H499       C1190   1.084       .  S
O500        H504   0.991       .  S
O502        H503   0.991       .  S
C505        C506   1.404       .  A
C505        C510   1.405       .  A
C506       C1203   1.403       .  A
C506        H511   1.083       .  S
C507       C1202   1.403   1_545  A
C507        C508   1.409       .  A
C507        O512   1.371       .  S
C508        C509   1.404       .  A
C509       C1206   1.398   1_545  A
C509        H513   1.084       .  S
C510       C1205   1.398       .  A
C510        O514   1.372       .  S
O512        H516   0.991       .  S
O514        H515   0.991       .  S
C517        C518   1.402       .  A
C517        C522   1.407       .  A
C518        C519   1.407       .  A
C518        H523   1.084       .  S
C519        C520   1.414       .  A
C519        O524   1.372       .  S
C520        C521   1.407       .  A
C521        C522   1.402       .  A
C521        H525   1.083       .  S
C522        O526   1.371       .  S
O524        H528   0.991       .  S
O526        H527   0.991       .  S
C529        C530   1.403       .  A
C529        C534   1.407       .  A
C530        C531   1.401       .  A
C530        H535   1.083       .  S
C531        C532   1.408       .  A
C531        O536   1.372       .  S
C532        C533   1.404       .  A
C533        C534   1.400       .  A
C533        H537   1.083       .  S
C534        O538   1.372       .  S
O536        H540   0.992       .  S
O538        H539   0.992       .  S
C541       C1934   1.406       .  A
C541       C1938   1.406       .  A
C542       C1933   1.406       .  A
C542        C543   1.410       .  A
C542       H1939   1.080       .  S
C543        C544   1.412       .  A
C543        O548   1.371       .  S
C544        C545   1.410       .  A
C545        C546   1.403       .  A
C545        H549   1.083       .  S
C546       C1933   1.406       .  A
C546        O550   1.372       .  S
H547       C1934   1.080       .  S
O548        H552   0.991       .  S
O550        H551   0.991       .  S
C553       C1250   1.407       .  A
C553        C558   1.407       .  A
C554       C1249   1.407   1_545  A
C554       C1251   1.400       .  A
C554        H559   1.084       .  S
C555       C1250   1.400       .  A
C555        C556   1.410       .  A
C555       O1256   1.372       .  S
C556        C557   1.409       .  A
C557        C558   1.402       .  A
C557        H561   1.083       .  S
C558        O562   1.371       .  S
O560       C1251   1.372       .  S
O560        H564   0.992       .  S
O562        H563   0.992       .  S
C565        C566   1.402   1_556  A
C565       C1266   1.406       .  A
C566        H571   1.084   1_554  S
C567        C568   1.410       .  A
C567        O572   1.372       .  S
C568       C1094   1.474       .  S
C568       C1265   1.407       .  A
C569       C1264   1.407   1_545  A
C569        H573   1.084       .  S
C570       C1261   1.406   1_545  A
C570        O574   1.372       .  S
O572        H576   0.992       .  S
O574        H575   0.992       .  S
C577        C578   1.404       .  A
C577        C582   1.406       .  A
C578        H583   1.084       .  S
C579        C580   1.407       .  A
C579        O584   1.372       .  S
C580        C581   1.406       .  A
C581        H585   1.084       .  S
C582        O586   1.372       .  S
O584        H588   0.992       .  S
O586        H587   0.992       .  S
C589        C590   1.407       .  A
C589        C594   1.406       .  A
C590        C591   1.398       .  A
C590        H595   1.084       .  S
C591        C592   1.409       .  A
C591        O596   1.372       .  S
C592        C593   1.409       .  A
C593        C594   1.401       .  A
C593        H597   1.084       .  S
C594        O598   1.372       .  S
O596        H600   0.992       .  S
O598        H599   0.992       .  S
C601        C602   1.403       .  A
C601        C606   1.406       .  A
C602        C603   1.398       .  A
C602        H607   1.083       .  S
C603        C604   1.407       .  A
C603        O608   1.372       .  S
C604        C605   1.400       .  A
C605        C606   1.396       .  A
C605        H609   1.081       .  S
C606        O610   1.372       .  S
O608        H612   0.992       .  S
O610        H611   0.992       .  S
C613        C614   1.404       .  A
C613        C618   1.415       .  A
C614        C615   1.405       .  A
C614        H619   1.083       .  S
C615       C2008   1.408   1_455  A
C615       O2012   1.367   1_455  S
C616       C2007   1.408       .  A
C616        C617   1.402       .  A
C617       C2010   1.400       .  A
C617        H621   1.084       .  S
C618       C2009   1.400   1_455  A
C618        O622   1.372       .  S
O620       C2007   1.367       .  S
O620       H2016   0.992       .  S
O622        H623   0.992       .  S
H624       O2012   0.992   1_455  S
C625       C1856   1.474       .  S
C625        C626   1.400       .  A
C625       C2022   1.413       .  A
C626        C627   1.398       .  A
C626        H631   1.084       .  S
C627        C628   1.416       .  A
C627        O632   1.373       .  S
C628       C2021   1.401       .  A
C629       C2020   1.401   1_455  A
C629        C630   1.395       .  A
C629        H633   1.083       .  S
C630       C2017   1.413   1_455  A
C630        O634   1.371       .  S
O632        H636   0.992       .  S
O634        H635   0.992       .  S
C637       C2030   1.405       .  A
C637        C642   1.419       .  A
C638       C2029   1.405   1_455  A
C638        H643   1.083       .  S
C639       C2032   1.418       .  A
C639        O644   1.372       .  S
C640       C2031   1.418       .  A
C640        C641   1.403       .  A
C641        H645   1.083       .  S
C642        O646   1.371       .  S
O644        H648   0.992       .  S
O646        H647   0.992       .  S
C649        C650   1.397       .  A
C649        C654   1.416       .  A
C650        C651   1.395       .  A
C650        H655   1.084       .  S
C651        C652   1.416       .  A
C651        O656   1.371       .  S
C652        C653   1.399       .  A
C653        C654   1.405       .  A
C653        H657   1.078       .  S
C654        O658   1.372       .  S
O656        H660   0.991       .  S
O658        H659   0.992       .  S
C661        C662   1.410       .  A
C661        C666   1.402       .  A
C662        C663   1.408       .  A
C662        H667   1.084       .  S
C663        C664   1.407       .  A
C663        O668   1.371       .  S
C664       C1062   1.481       .  S
C664        C665   1.409       .  A
C665        C666   1.396       .  A
C665       H1365   1.083       .  S
C666        O670   1.372       .  S
O668        H672   0.992       .  S
H669       C1361   1.083   1_545  S
O670        H671   0.992       .  S
C673        C674   1.405       .  A
C673        C678   1.409       .  A
C674        C675   1.403       .  A
C674       H1375   1.084   1_545  S
C675        C676   1.408       .  A
C675        O680   1.370       .  S
C676        C677   1.403       .  A
C677        C678   1.397       .  A
C677        H681   1.084       .  S
C678        O682   1.372       .  S
H679       C1370   1.084       .  S
O680       H1380   0.992   1_545  S
O682        H683   0.992       .  S
H684       O1376   0.992       .  S
C685        C686   1.402       .  A
C685        C690   1.409       .  A
C686        C687   1.398       .  A
C686        H691   1.084       .  S
C687        C688   1.406       .  A
C687        O692   1.370       .  S
C688        C689   1.401       .  A
C689        C690   1.398       .  A
C689        H693   1.084       .  S
C690        O694   1.373   1_455  S
O692        H696   0.992       .  S
O694        H695   0.991       .  S
O697       Cr715   1.965       .  S
O697        C705   1.249       .  A
O698       Cr715   2.029       .  S
O698        C699   1.275       .  A
C699        O700   1.250       .  A
C699        C997   1.476       .  S
O700       Cr716   1.938       .  S
O701       Cr716   2.036       .  S
O701        C702   1.277       .  A
C702        O703   1.256       .  A
C702        C976   1.477       .  S
O703       Cr717   1.947       .  S
O704       Cr717   2.023       .  S
O704        C705   1.260       .  A
C705       C1024   1.475       .  S
O706       Cr715   2.071       .  S
O706        C714   1.283       .  A
O707       Cr715   1.973       .  S
O707        C708   1.259       .  A
C708        O709   1.274       .  A
C708        C985   1.504       .  S
O709       Cr716   2.044       .  S
O710      Cr2108   1.972   1_455  S
O710        C711   1.260       .  A
C711       O2104   1.263   1_455  A
C711       C1033   1.469       .  S
O712       Cr717   2.005       .  S
O712       C2103   1.263       .  A
O713       Cr717   1.927       .  S
O713        C714   1.253       .  A
Cr715       O718   1.760       .  S
Cr716      O2102   1.972       .  S
Cr716       O718   1.772       .  S
Cr717       O718   1.762       .  S
O719       Cr737   1.921       .  S
O719        C727   1.245       .  A
O720       Cr737   2.016       .  S
O720        C721   1.269       .  A
C721        O722   1.261       .  A
C721        C949   1.467       .  S
O722       Cr738   1.963       .  S
O723       Cr738   2.029       .  S
O723        C724   1.270       .  A
C724        O725   1.254       .  A
C724        C940   1.481       .  S
O725       Cr739   1.957       .  S
O726       Cr739   2.070       .  S
O726        C727   1.278       .  A
C727       C1000   1.480       .  S
O728       Cr737   2.057       .  S
O728        C736   1.271       .  A
O729       Cr737   1.946       .  S
O729        C730   1.258       .  A
C730        O731   1.270       .  A
C730        C925   1.466       .  S
O731       Cr738   2.020       .  S
O732       Cr738   1.952       .  S
O732        C733   1.256       .  A
C733        O734   1.278       .  A
C733       C1009   1.478       .  S
O734       Cr739   2.040       .  S
O735       Cr739   1.943       .  S
O735        C736   1.246       .  A
C736        C964   1.476       .  S
Cr737       O740   1.752       .  S
Cr738       O740   1.766       .  S
Cr739       O740   1.752       .  S
O741       Cr759   2.002       .  S
O741        C749   1.264       .  A
O742       Cr759   1.970       .  S
O742        C743   1.253       .  A
C743        O744   1.262       .  A
C743        C952   1.465       .  S
O744       Cr760   2.009       .  S
O745       Cr760   1.962       .  S
O745        C746   1.258       .  A
O747       Cr761   2.011       .  S
O748        C749   1.261       .  A
C749       C1021   1.477       .  S
O750       Cr759   1.963       .  S
O751       Cr759   2.029       .  S
O751        C752   1.270       .  A
C752        O753   1.256       .  A
C752       C1036   1.464       .  S
O753       Cr760   1.956       .  S
O754        C755   1.263       .  A
C755        O756   1.268       .  A
C755        C961   1.488       .  S
O756       Cr761   2.000       .  S
O757       Cr761   2.021       .  S
O757        C758   1.270   1_565  A
C758        C901   1.481   1_545  S
Cr759       O762   1.768       .  S
Cr760       O762   1.763       .  S
O763       Cr781   2.015       .  S
O763        C771   1.267       .  A
O764       Cr781   1.971       .  S
O764        C765   1.254       .  A
C765        O766   1.263       .  A
C765        C877   1.470       .  S
O766       Cr782   2.018       .  S
O767       Cr782   1.954       .  S
O767        C768   1.256       .  A
C768        O769   1.270       .  A
C768        C928   1.466       .  S
O769       Cr783   2.013       .  S
O770       Cr783   1.984       .  S
O770        C771   1.262       .  A
C771        C868   1.492       .  S
O772       Cr781   1.958       .  S
O772        C780   1.259       .  A
O773       Cr781   2.039       .  S
O773        C774   1.273       .  A
C774        O775   1.257       .  A
C774        C853   1.469       .  S
O775       Cr782   1.957       .  S
O776       Cr782   2.011       .  S
O776        C777   1.265       .  A
C777        O778   1.268       .  A
C777        C892   1.498       .  S
O778       Cr783   2.004       .  S
O779       Cr783   2.021       .  S
O779        C780   1.271       .  A
C780        C937   1.479       .  S
Cr781       O784   1.766       .  S
Cr782       O784   1.763       .  S
Cr783       O784   1.773       .  S
O785       Cr803   1.920       .  S
O785        C793   1.245       .  A
O786       Cr803   2.016       .  S
O786        C787   1.269       .  A
C787        O788   1.263       .  A
C787        C880   1.474       .  S
O788       Cr804   1.975       .  S
O789       Cr804   2.029       .  S
O789        C790   1.270       .  A
C790        O791   1.254       .  A
C790        C904   1.484       .  S
O791       Cr805   1.961       .  S
O792       Cr805   2.069       .  S
O792        C793   1.277       .  A
C793        C832   1.482       .  S
O794       Cr803   2.061       .  S
O794        C802   1.272       .  A
O795       Cr803   1.952       .  S
O795        C796   1.261       .  A
C796        O797   1.271       .  A
C796        C913   1.467       .  S
O797       Cr804   2.020       .  S
O798        C799   1.257       .  A
C799        C841   1.477       .  S
O800       Cr805   2.036       .  S
O801       Cr805   1.949       .  S
O801        C802   1.247       .  A
C802        C889   1.481   1_455  S
Cr803       O806   1.752       .  S
Cr804       O806   1.768       .  S
Cr805       O806   1.758       .  S
O807       Cr825   1.973       .  S
O807        C815   1.249       .  A
O808       Cr825   2.022       .  S
O808        C809   1.274       .  A
C809        O810   1.252       .  A
C809        C829   1.482       .  S
O810      Cr2218   1.946   1_455  S
O811       Cr826   2.031       .  S
O811       C2204   1.275       .  A
C812       O2203   1.275   1_455  A
C812        O813   1.258       .  A
C812       C2365   1.474   1_455  S
O813       Cr827   1.949       .  S
O814       Cr827   2.030       .  S
O814        C815   1.260       .  A
C815        C865   1.479       .  S
O816       Cr825   2.066       .  S
O816        C824   1.283       .  A
O817       Cr825   1.979       .  S
O817       C2210   1.260       .  A
C818       O2209   1.260       .  A
C818        O819   1.273       .  A
C818        C988   1.503       .  S
O819       Cr826   2.037       .  S
O820       Cr826   1.982       .  S
O820        C821   1.262       .  A
C821        O822   1.265       .  A
C821        C856   1.476       .  S
O822      Cr2219   2.007       .  S
O823       Cr827   1.930       .  S
O823        C824   1.254       .  A
C824        C844   1.481       .  S
Cr825       O828   1.763       .  S
Cr826      O2202   1.946       .  S
Cr826      O2220   1.774       .  S
Cr827      O2214   2.007   1_455  S
Cr827       O828   1.763       .  S
O828      Cr2218   1.774   1_455  S
C829        C830   1.414       .  A
C829        C834   1.403       .  A
C830        C831   1.406       .  A
C830        H835   1.083   1_455  S
C831        C832   1.404       .  A
C831        O836   1.370       .  S
C832        C833   1.411       .  A
C833        C834   1.395       .  A
C833        H837   1.084       .  S
C834        O838   1.373       .  S
O836       H2232   0.992       .  S
O838        H839   0.990       .  S
H840       O2228   0.992       .  S
C841        C842   1.398       .  A
C841        C846   1.414       .  A
C842        C843   1.397       .  A
C843        C844   1.417       .  A
C843        O848   1.372       .  S
C844        C845   1.403       .  A
C845        C846   1.406       .  A
C845        H849   1.084       .  S
C846        O850   1.372       .  S
O848        H852   0.991       .  S
O850        H851   0.991       .  S
C853        C854   1.404       .  A
C853        C858   1.405       .  A
C854        H859   1.083       .  S
C855        C856   1.409       .  A
C855        O860   1.371       .  S
C856        C857   1.404       .  A
C857        H861   1.084       .  S
C858        O862   1.372       .  S
O860        H864   0.991       .  S
O862        H863   0.991       .  S
C865        C866   1.402       .  A
C865        C870   1.407       .  A
C866        C867   1.407       .  A
C866        H871   1.084       .  S
C867        C868   1.414       .  A
C867        O872   1.372       .  S
C868        C869   1.407       .  A
C869        C870   1.402       .  A
C869        H873   1.083       .  S
C870        O874   1.371       .  S
O872        H876   0.991       .  S
O874        H875   0.991       .  S
C877        C878   1.403       .  A
C877        C882   1.407       .  A
C878        C879   1.401       .  A
C878        H883   1.083       .  S
C879        C880   1.408       .  A
C879        O884   1.372       .  S
C880        C881   1.404       .  A
C881        C882   1.400       .  A
C881        H885   1.083       .  S
C882        O886   1.372       .  S
O884        H888   0.992       .  S
O886        H887   0.992       .  S
C889       C2282   1.406       .  A
C889       C2286   1.406       .  A
C890       C2281   1.406       .  A
C890        C891   1.410       .  A
C890       H2287   1.080       .  S
C891        C892   1.412       .  A
C891        O896   1.371       .  S
C892        C893   1.410       .  A
C893        C894   1.403       .  A
C893        H897   1.083       .  S
C894       C2281   1.406       .  A
C894        O898   1.372       .  S
H895       C2282   1.080       .  S
O896        H900   0.991       .  S
O898        H899   0.991       .  S
C901        C906   1.407       .  A
C902        H907   1.084       .  S
C903        C904   1.410   1_545  A
C904        C905   1.409       .  A
C905        C906   1.402       .  A
C905        H909   1.083       .  S
C906        O910   1.371       .  S
O908        H912   0.992       .  S
O910        H911   0.992       .  S
C913        C914   1.402       .  A
C914       C1263   1.391       .  A
C914        H919   1.084       .  S
C915       C1262   1.391       .  A
C915        C916   1.410       .  A
C915        O920   1.372       .  S
C917       C1266   1.399   1_554  A
C917        H921   1.084       .  S
C918       C1265   1.399       .  A
C918        O922   1.372       .  S
O920        H924   0.992       .  S
O922        H923   0.992       .  S
C925        C926   1.404   1_554  A
C925        C930   1.406       .  A
C926       C1275   1.390       .  A
C926        H931   1.084   1_556  S
C927       C1274   1.390       .  A
C927        C928   1.407       .  A
C927        O932   1.372       .  S
C928        C929   1.406       .  A
C929       C1278   1.397       .  A
C929        H933   1.084       .  S
C930       C1277   1.397   1_554  A
C930        O934   1.372       .  S
O932        H936   0.992       .  S
O934        H935   0.992       .  S
C937        C938   1.407       .  A
C937        C942   1.406       .  A
C938        C939   1.398       .  A
C938        H943   1.084       .  S
C939        C940   1.409       .  A
C939        O944   1.372       .  S
C940        C941   1.409       .  A
C941        C942   1.401       .  A
C941        H945   1.084       .  S
C942        O946   1.372       .  S
O944        H948   0.992       .  S
O946        H947   0.992       .  S
C949        C950   1.403       .  A
C949        C954   1.406       .  A
C950        C951   1.398       .  A
C950        H955   1.083       .  S
C951        C952   1.407       .  A
C951        O956   1.372       .  S
C952        C953   1.400       .  A
C953        C954   1.396       .  A
C953        H957   1.081       .  S
C954        O958   1.372       .  S
O956        H960   0.992       .  S
O958        H959   0.992       .  S
C961        C962   1.404       .  A
C961        C966   1.415       .  A
C962        C963   1.405       .  A
C962        H967   1.083       .  S
C963       C2356   1.408   1_455  A
C963       O2360   1.367   1_455  S
C964       C2355   1.408       .  A
C964        C965   1.402       .  A
C965       C2358   1.400       .  A
C965        H969   1.084       .  S
C966       C2357   1.400   1_455  A
C966        O970   1.372       .  S
O968       C2355   1.367       .  S
O968       H2364   0.992       .  S
O970        H971   0.992       .  S
H972       O2360   0.992   1_455  S
C973       C2204   1.474       .  S
C973        C974   1.400       .  A
C973       C2370   1.413       .  A
C974        C975   1.398       .  A
C974        H979   1.084       .  S
C975        C976   1.416       .  A
C975        O980   1.373       .  S
C976       C2369   1.401       .  A
C977       C2368   1.401   1_455  A
C977        C978   1.395       .  A
C977        H981   1.083       .  S
C978       C2365   1.413   1_455  A
C978        O982   1.371       .  S
O980        H984   0.992       .  S
O982        H983   0.992       .  S
C985       C2378   1.405       .  A
C985        C990   1.419       .  A
C986       C2377   1.405   1_455  A
C986       C1335   1.412   1_554  A
C986        H991   1.083       .  S
C987       C1334   1.412       .  A
C987       C2380   1.418       .  A
C987        O992   1.372       .  S
C988       C2379   1.418       .  A
C988        C989   1.403       .  A
C989       C1338   1.408       .  A
C989        H993   1.083       .  S
C990       C1337   1.408   1_554  A
C990        O994   1.371       .  S
O992        H996   0.992       .  S
O994        H995   0.992       .  S
C997        C998   1.397       .  A
C997       C1002   1.416       .  A
C998        C999   1.395       .  A
C998       H1003   1.084       .  S
C999       C1000   1.416       .  A
C999       O1004   1.371       .  S
C1000      C1001   1.399       .  A
C1001      C1002   1.405       .  A
C1001      H1005   1.078       .  S
C1002      O1006   1.372       .  S
O1004      H1008   0.991       .  S
O1006      H1007   0.992       .  S
C1009      C1010   1.410       .  A
C1009      C1014   1.402       .  A
C1010      C1011   1.408       .  A
C1010      H1015   1.084       .  S
C1011      C1012   1.407       .  A
C1011      O1016   1.371       .  S
C1012      C1013   1.409       .  A
C1013      C1014   1.396       .  A
C1014      O1018   1.372       .  S
O1016      H1020   0.992       .  S
O1018      H1019   0.992       .  S
C1021      C1022   1.405       .  A
C1021      C1026   1.409       .  A
C1022      C1023   1.403       .  A
C1023      C1024   1.408       .  A
C1023      O1028   1.370       .  S
C1024      C1025   1.403       .  A
C1025      C1026   1.397       .  A
C1025      H1029   1.084       .  S
C1026      O1030   1.372       .  S
O1030      H1031   0.992       .  S
C1033      C1034   1.402       .  A
C1033      C1038   1.409       .  A
C1034      C1035   1.398       .  A
C1034      H1039   1.084       .  S
C1035      C1036   1.406       .  A
C1035      O1040   1.370       .  S
C1036      C1037   1.401       .  A
C1037      C1038   1.398       .  A
C1037      H1041   1.084       .  S
C1038      O1042   1.373   1_455  S
O1040      H1044   0.992       .  S
O1042      H1043   0.991       .  S
O1045     Cr1063   1.965       .  S
O1045      C1053   1.249       .  A
O1046     Cr1063   2.029       .  S
O1046      C1047   1.275       .  A
C1047      O1048   1.250       .  A
C1047      C1345   1.476       .  S
O1048     Cr1064   1.938       .  S
O1049     Cr1064   2.036       .  S
O1049      C1050   1.277       .  A
C1050      O1051   1.256       .  A
C1050      C1324   1.477       .  S
O1051     Cr1065   1.947       .  S
O1052     Cr1065   2.023       .  S
O1052      C1053   1.260       .  A
C1053      C1372   1.475       .  S
O1054     Cr1063   2.071       .  S
O1054      C1062   1.283       .  A
O1055     Cr1063   1.973       .  S
O1055      C1056   1.259       .  A
C1056      O1057   1.274       .  A
C1056      C1333   1.504       .  S
O1057     Cr1064   2.044       .  S
O1058     Cr2456   1.972   1_455  S
O1058      C1059   1.260       .  A
C1059      O2452   1.263   1_455  A
C1059      C1381   1.469       .  S
O1060     Cr1065   2.005       .  S
O1060      C2451   1.263       .  A
O1061     Cr1065   1.927       .  S
O1061      C1062   1.253       .  A
Cr1063     O1066   1.760       .  S
Cr1064     O2450   1.972       .  S
Cr1064     O1066   1.772       .  S
Cr1065     O1066   1.762       .  S
O1067     Cr1085   1.921       .  S
O1067      C1075   1.245       .  A
O1068     Cr1085   2.016       .  S
O1068      C1069   1.269       .  A
C1069      O1070   1.261       .  A
C1069      C1297   1.467       .  S
O1070     Cr1086   1.963       .  S
O1071     Cr1086   2.029       .  S
O1071      C1072   1.270       .  A
C1072      O1073   1.254       .  A
C1072      C1288   1.481       .  S
O1073     Cr1087   1.957       .  S
O1074     Cr1087   2.070       .  S
O1074      C1075   1.278       .  A
C1075      C1348   1.480       .  S
O1076     Cr1085   2.057       .  S
O1076      C1084   1.271       .  A
O1077     Cr1085   1.946       .  S
O1077      C1078   1.258       .  A
C1078      O1079   1.270       .  A
C1078      C1273   1.466       .  S
O1079     Cr1086   2.020       .  S
O1080     Cr1086   1.952       .  S
O1080      C1081   1.256       .  A
C1081      O1082   1.278       .  A
C1081      C1357   1.478       .  S
O1082     Cr1087   2.040       .  S
O1083     Cr1087   1.943       .  S
O1083      C1084   1.246       .  A
C1084      C1312   1.476       .  S
Cr1085     O1088   1.752       .  S
Cr1086     O1088   1.766       .  S
Cr1087     O1088   1.752       .  S
O1089     Cr1107   2.002       .  S
O1089      C1097   1.264       .  A
O1090     Cr1107   1.970       .  S
O1090      C1091   1.253       .  A
C1091      O1092   1.262       .  A
C1091      C1300   1.465       .  S
O1092     Cr1108   2.009       .  S
O1093     Cr1108   1.962       .  S
O1093      C1094   1.258       .  A
O1095     Cr1109   2.011       .  S
O1096      C1097   1.261       .  A
C1097      C1369   1.477       .  S
O1098     Cr1107   1.963       .  S
O1099     Cr1107   2.029       .  S
O1099      C1100   1.270       .  A
C1100      O1101   1.256       .  A
C1100      C1384   1.464       .  S
O1101     Cr1108   1.956       .  S
O1102      C1103   1.263       .  A
C1103      O1104   1.268       .  A
C1103      C1309   1.488       .  S
O1104     Cr1109   2.000       .  S
O1105     Cr1109   2.021       .  S
O1105      C1106   1.270   1_565  A
C1106      C1249   1.481   1_545  S
Cr1107     O1110   1.768       .  S
Cr1108     O1110   1.763       .  S
O1111     Cr1129   2.015       .  S
O1111      C1119   1.267       .  A
O1112     Cr1129   1.971       .  S
O1112      C1113   1.254       .  A
C1113      O1114   1.263       .  A
C1113      C1225   1.470       .  S
O1114     Cr1130   2.018       .  S
O1115     Cr1130   1.954       .  S
O1115      C1116   1.256       .  A
C1116      O1117   1.270       .  A
C1116      C1276   1.466       .  S
O1117     Cr1131   2.013       .  S
O1118     Cr1131   1.984       .  S
O1118      C1119   1.262       .  A
C1119      C1216   1.492       .  S
O1120     Cr1129   1.958       .  S
O1120      C1128   1.259       .  A
O1121     Cr1129   2.039       .  S
O1121      C1122   1.273       .  A
C1122      O1123   1.257       .  A
C1122      C1201   1.469       .  S
O1123     Cr1130   1.957       .  S
O1124     Cr1130   2.011       .  S
O1124      C1125   1.265       .  A
C1125      O1126   1.268       .  A
C1125      C1240   1.498       .  S
O1126     Cr1131   2.004       .  S
O1127     Cr1131   2.021       .  S
O1127      C1128   1.271       .  A
C1128      C1285   1.479       .  S
Cr1129     O1132   1.766       .  S
Cr1130     O1132   1.763       .  S
Cr1131     O1132   1.773       .  S
O1133     Cr1151   1.920       .  S
O1133      C1141   1.245       .  A
O1134     Cr1151   2.016       .  S
O1134      C1135   1.269       .  A
C1135      O1136   1.263       .  A
C1135      C1228   1.474       .  S
O1136     Cr1152   1.975       .  S
O1137     Cr1152   2.029       .  S
O1137      C1138   1.270       .  A
C1138      O1139   1.254       .  A
C1138      C1252   1.484       .  S
O1139     Cr1153   1.961       .  S
O1140     Cr1153   2.069       .  S
O1140      C1141   1.277       .  A
C1141      C1180   1.482       .  S
O1142     Cr1151   2.061       .  S
O1142      C1150   1.272       .  A
O1143     Cr1151   1.952       .  S
O1143      C1144   1.261       .  A
C1144      O1145   1.271       .  A
C1144      C1261   1.467       .  S
O1145     Cr1152   2.020       .  S
O1146      C1147   1.257       .  A
C1147      C1189   1.477       .  S
O1148     Cr1153   2.036       .  S
O1149     Cr1153   1.949       .  S
O1149      C1150   1.247       .  A
C1150      C1237   1.481   1_455  S
Cr1151     O1154   1.752       .  S
Cr1152     O1154   1.768       .  S
Cr1153     O1154   1.758       .  S
O1155     Cr1173   1.973       .  S
O1155      C1163   1.249       .  A
O1156     Cr1173   2.022       .  S
O1156      C1157   1.274       .  A
C1157      O1158   1.252       .  A
C1157      C1177   1.482       .  S
O1158     Cr2566   1.946   1_455  S
O1159     Cr1174   2.031       .  S
O1159      C2552   1.275       .  A
C1160      O2551   1.275   1_455  A
C1160      O1161   1.258       .  A
C1160      C2713   1.474   1_455  S
O1161     Cr1175   1.949       .  S
O1162     Cr1175   2.030       .  S
O1162      C1163   1.260       .  A
C1163      C1213   1.479       .  S
O1164     Cr1173   2.066       .  S
O1164      C1172   1.283       .  A
O1165     Cr1173   1.979       .  S
O1165      C2558   1.260       .  A
C1166      O2557   1.260       .  A
C1166      O1167   1.273       .  A
C1166      C1336   1.503       .  S
O1167     Cr1174   2.037       .  S
O1168     Cr1174   1.982       .  S
O1168      C1169   1.262       .  A
C1169      O1170   1.265       .  A
C1169      C1204   1.476       .  S
O1170     Cr2567   2.007       .  S
O1171     Cr1175   1.930       .  S
O1171      C1172   1.254       .  A
C1172      C1192   1.481       .  S
Cr1173     O1176   1.763       .  S
Cr1174     O2550   1.946       .  S
Cr1174     O2568   1.774       .  S
Cr1175     O2562   2.007   1_455  S
Cr1175     O1176   1.763       .  S
O1176     Cr2566   1.774   1_455  S
C1177      C1178   1.414       .  A
C1177      C1182   1.403       .  A
C1178      C1179   1.406       .  A
C1178      H1183   1.083   1_455  S
C1179      C1180   1.404       .  A
C1179      O1184   1.370       .  S
C1180      C1181   1.411       .  A
C1181      C1182   1.395       .  A
C1181      H1185   1.084       .  S
C1182      O1186   1.373       .  S
O1184      H2580   0.992       .  S
O1186      H1187   0.990       .  S
H1188      O2576   0.992       .  S
C1189      C1190   1.398       .  A
C1189      C1194   1.414       .  A
C1190      C1191   1.397       .  A
C1191      C1192   1.417       .  A
C1191      O1196   1.372       .  S
C1192      C1193   1.403       .  A
C1193      C1194   1.406       .  A
C1193      H1197   1.084       .  S
C1194      O1198   1.372       .  S
O1196      H1200   0.991       .  S
O1198      H1199   0.991       .  S
C1201      C1202   1.404       .  A
C1201      C1206   1.405       .  A
C1202      H1207   1.083       .  S
C1203      C1204   1.409       .  A
C1203      O1208   1.371       .  S
C1204      C1205   1.404       .  A
C1205      H1209   1.084       .  S
C1206      O1210   1.372       .  S
O1208      H1212   0.991       .  S
O1210      H1211   0.991       .  S
C1213      C1214   1.402       .  A
C1213      C1218   1.407       .  A
C1214      C1215   1.407       .  A
C1214      H1219   1.084       .  S
C1215      C1216   1.414       .  A
C1215      O1220   1.372       .  S
C1216      C1217   1.407       .  A
C1217      C1218   1.402       .  A
C1217      H1221   1.083       .  S
C1218      O1222   1.371       .  S
O1220      H1224   0.991       .  S
O1222      H1223   0.991       .  S
C1225      C1226   1.403       .  A
C1225      C1230   1.407       .  A
C1226      C1227   1.401       .  A
C1226      H1231   1.083       .  S
C1227      C1228   1.408       .  A
C1227      O1232   1.372       .  S
C1228      C1229   1.404       .  A
C1229      C1230   1.400       .  A
C1229      H1233   1.083       .  S
C1230      O1234   1.372       .  S
O1232      H1236   0.992       .  S
O1234      H1235   0.992       .  S
C1237      C2630   1.406       .  A
C1237      C2634   1.406       .  A
C1238      C2629   1.406       .  A
C1238      C1239   1.410       .  A
C1238      H2635   1.080       .  S
C1239      C1240   1.412       .  A
C1239      O1244   1.371       .  S
C1240      C1241   1.410       .  A
C1241      C1242   1.403       .  A
C1241      H1245   1.083       .  S
C1242      C2629   1.406       .  A
C1242      O1246   1.372       .  S
H1243      C2630   1.080       .  S
O1244      H1248   0.991       .  S
O1246      H1247   0.991       .  S
C1249      C1254   1.407       .  A
C1250      H1255   1.084       .  S
C1251      C1252   1.410   1_545  A
C1252      C1253   1.409       .  A
C1253      C1254   1.402       .  A
C1253      H1257   1.083       .  S
C1254      O1258   1.371       .  S
O1256      H1260   0.992       .  S
O1258      H1259   0.992       .  S
C1261      C1262   1.402   1_556  A
C1262      H1267   1.084   1_554  S
C1263      C1264   1.410       .  A
C1263      O1268   1.372       .  S
C1265      H1269   1.084       .  S
C1266      O1270   1.372       .  S
O1268      H1272   0.992       .  S
O1270      H1271   0.992       .  S
C1273      C1274   1.404       .  A
C1273      C1278   1.406       .  A
C1274      H1279   1.084       .  S
C1275      C1276   1.407       .  A
C1275      O1280   1.372       .  S
C1276      C1277   1.406       .  A
C1277      H1281   1.084       .  S
C1278      O1282   1.372       .  S
O1280      H1284   0.992       .  S
O1282      H1283   0.992       .  S
C1285      C1286   1.407       .  A
C1285      C1290   1.406       .  A
C1286      C1287   1.398       .  A
C1286      H1291   1.084       .  S
C1287      C1288   1.409       .  A
C1287      O1292   1.372       .  S
C1288      C1289   1.409       .  A
C1289      C1290   1.401       .  A
C1289      H1293   1.084       .  S
C1290      O1294   1.372       .  S
O1292      H1296   0.992       .  S
O1294      H1295   0.992       .  S
C1297      C1298   1.403       .  A
C1297      C1302   1.406       .  A
C1298      C1299   1.398       .  A
C1298      H1303   1.083       .  S
C1299      C1300   1.407       .  A
C1299      O1304   1.372       .  S
C1300      C1301   1.400       .  A
C1301      C1302   1.396       .  A
C1301      H1305   1.081       .  S
C1302      O1306   1.372       .  S
O1304      H1308   0.992       .  S
O1306      H1307   0.992       .  S
C1309      C1310   1.404       .  A
C1309      C1314   1.415       .  A
C1310      C1311   1.405       .  A
C1310      H1315   1.083       .  S
C1311      C2704   1.408   1_455  A
C1311      O2708   1.367   1_455  S
C1312      C2703   1.408       .  A
C1312      C1313   1.402       .  A
C1313      C2706   1.400       .  A
C1313      H1317   1.084       .  S
C1314      C2705   1.400   1_455  A
C1314      O1318   1.372       .  S
O1316      C2703   1.367       .  S
O1316      H2712   0.992       .  S
O1318      H1319   0.992       .  S
H1320      O2708   0.992   1_455  S
C1321      C2552   1.474       .  S
C1321      C1322   1.400       .  A
C1321      C2718   1.413       .  A
C1322      C1323   1.398       .  A
C1322      H1327   1.084       .  S
C1323      C1324   1.416       .  A
C1323      O1328   1.373       .  S
C1324      C2717   1.401       .  A
C1325      C2716   1.401   1_455  A
C1325      C1326   1.395       .  A
C1325      H1329   1.083       .  S
C1326      C2713   1.413   1_455  A
C1326      O1330   1.371       .  S
O1328      H1332   0.992       .  S
O1330      H1331   0.992       .  S
C1333      C2726   1.406       .  A
C1333      C1338   1.419       .  A
C1334      C2725   1.406   1_455  A
C1334      H1339   1.083       .  S
C1335      C2728   1.418       .  A
C1335      O1340   1.372       .  S
C1336      C2727   1.418       .  A
C1336      C1337   1.403       .  A
C1337      H1341   1.083       .  S
C1338      O1342   1.371       .  S
O1340      H1344   0.992       .  S
O1342      H1343   0.992       .  S
C1345      C1346   1.397       .  A
C1345      C1350   1.416       .  A
C1346      C1347   1.395       .  A
C1346      H1351   1.084       .  S
C1347      C1348   1.416       .  A
C1347      O1352   1.371       .  S
C1348      C1349   1.399       .  A
C1349      C1350   1.405       .  A
C1349      H1353   1.078       .  S
C1350      O1354   1.372       .  S
O1352      H1356   0.991       .  S
O1354      H1355   0.992       .  S
C1357      C1358   1.410       .  A
C1357      C1362   1.402       .  A
C1358      C1359   1.408       .  A
C1358      H1363   1.084       .  S
C1359      C1360   1.407       .  A
C1359      O1364   1.371       .  S
C1360      C1361   1.409       .  A
C1361      C1362   1.396       .  A
C1362      O1366   1.372       .  S
O1364      H1368   0.992       .  S
O1366      H1367   0.992       .  S
C1369      C1370   1.405       .  A
C1369      C1374   1.409       .  A
C1370      C1371   1.403       .  A
C1371      C1372   1.408       .  A
C1371      O1376   1.370       .  S
C1372      C1373   1.403       .  A
C1373      C1374   1.397       .  A
C1373      H1377   1.084       .  S
C1374      O1378   1.372       .  S
O1378      H1379   0.992       .  S
C1381      C1382   1.402       .  A
C1381      C1386   1.409       .  A
C1382      C1383   1.398       .  A
C1382      H1387   1.084       .  S
C1383      C1384   1.406       .  A
C1383      O1388   1.370       .  S
C1384      C1385   1.401       .  A
C1385      C1386   1.398       .  A
C1385      H1389   1.084       .  S
C1386      O1390   1.373   1_455  S
O1388      H1392   0.992       .  S
O1390      H1391   0.991       .  S
O1393     Cr1411   1.965       .  S
O1393      C1401   1.249       .  A
O1394     Cr1411   2.029       .  S
O1394      C1395   1.275       .  A
C1395      O1396   1.250       .  A
C1395      C1693   1.476       .  S
O1396     Cr1412   1.938       .  S
O1397     Cr1412   2.036       .  S
O1397      C1398   1.277       .  A
C1398      O1399   1.256       .  A
C1398      C1672   1.477       .  S
O1399     Cr1413   1.947       .  S
O1400     Cr1413   2.023       .  S
O1400      C1401   1.260       .  A
C1401      C1720   1.475       .  S
O1402     Cr1411   2.071       .  S
O1402      C1410   1.283       .  A
O1403     Cr1411   1.973       .  S
O1403      C1404   1.259       .  A
C1404      O1405   1.274       .  A
C1404      C1681   1.504       .  S
O1405     Cr1412   2.044       .  S
O1406      C1407   1.260       .  A
C1407      C1729   1.469       .  S
O1408     Cr1413   2.005       .  S
O1409     Cr1413   1.927       .  S
O1409      C1410   1.253       .  A
C1410      C2404   1.481   1_545  S
Cr1411     O1414   1.760       .  S
Cr1412     O1414   1.772       .  S
Cr1413     O1414   1.762       .  S
O1415     Cr1433   1.921       .  S
O1415      C1423   1.245       .  A
O1416     Cr1433   2.016       .  S
O1416      C1417   1.269       .  A
C1417      O1418   1.261       .  A
C1417      C1645   1.467       .  S
O1418     Cr1434   1.963       .  S
O1419     Cr1434   2.029       .  S
O1419      C1420   1.270       .  A
C1420      O1421   1.254       .  A
C1420      C1636   1.481       .  S
O1421     Cr1435   1.957       .  S
O1422     Cr1435   2.070       .  S
O1422      C1423   1.278       .  A
C1423      C1696   1.480       .  S
O1424     Cr1433   2.057       .  S
O1424      C1432   1.271       .  A
O1425     Cr1433   1.946       .  S
O1425      C1426   1.258       .  A
C1426      O1427   1.270       .  A
C1426      C1621   1.466       .  S
O1427     Cr1434   2.020       .  S
O1428     Cr1434   1.952       .  S
O1428      C1429   1.256       .  A
C1429      O1430   1.278       .  A
C1429      C1705   1.478       .  S
O1430     Cr1435   2.040       .  S
O1431     Cr1435   1.943       .  S
O1431      C1432   1.246       .  A
C1432      C1660   1.476       .  S
Cr1433     O1436   1.752       .  S
Cr1434     O1436   1.766       .  S
Cr1435     O1436   1.752       .  S
O1437     Cr1455   2.002       .  S
O1437      C1445   1.264       .  A
O1438     Cr1455   1.970       .  S
O1438      C1439   1.253       .  A
C1439      O1440   1.262       .  A
C1439      C1648   1.465       .  S
O1440     Cr1456   2.009       .  S
O1441     Cr1456   1.962       .  S
O1441      C1442   1.258       .  A
C1442      O2139   1.269   1_545  A
C1442      C2308   1.474   1_545  S
O1443     Cr1457   2.011       .  S
O1443      C2138   1.269       .  A
O1444     Cr2153   1.980   1_545  S
O1444      C1445   1.261       .  A
C1445      C1717   1.477       .  S
O1446     Cr1455   1.963       .  S
O1446      C2150   1.260       .  A
O1447     Cr1455   2.029       .  S
O1447      C1448   1.270       .  A
C1448      O1449   1.256       .  A
C1448      C1732   1.464       .  S
O1449     Cr1456   1.956       .  S
O1450     Cr2152   1.999       .  S
O1450      C1451   1.263       .  A
C1451      O1452   1.268       .  A
C1451      C1657   1.488       .  S
O1452     Cr1457   2.000       .  S
O1453     Cr1457   2.021       .  S
O1453      C1454   1.270       .  A
C1454      O2142   1.260       .  A
C1454      C1597   1.481       .  S
Cr1455     O1458   1.768       .  S
Cr1456     O2146   1.999   1_545  S
Cr1456     O1458   1.763       .  S
Cr1457     O2140   1.980       .  S
Cr1457     O2154   1.771       .  S
O1458     Cr2153   1.771   1_545  S
O1459     Cr1477   2.015       .  S
O1459      C1467   1.267       .  A
O1460     Cr1477   1.971       .  S
O1460      C1461   1.254       .  A
C1461      O1462   1.263       .  A
C1461      C1573   1.470       .  S
O1462     Cr1478   2.018       .  S
O1463     Cr1478   1.954       .  S
O1463      C1464   1.256       .  A
C1464      O1465   1.270       .  A
C1464      C1624   1.466       .  S
O1465     Cr1479   2.013       .  S
O1466     Cr1479   1.984       .  S
O1466      C1467   1.262       .  A
C1467      C1564   1.492       .  S
O1468     Cr1477   1.958       .  S
O1468      C1476   1.259       .  A
O1469     Cr1477   2.039       .  S
O1469      C1470   1.273       .  A
C1470      O1471   1.257       .  A
C1470      C1549   1.469       .  S
O1471     Cr1478   1.957       .  S
O1472     Cr1478   2.011       .  S
O1472      C1473   1.265       .  A
C1473      O1474   1.268       .  A
C1473      C1588   1.498       .  S
O1474     Cr1479   2.004       .  S
O1475     Cr1479   2.021       .  S
O1475      C1476   1.271       .  A
C1476      C1633   1.479       .  S
Cr1477     O1480   1.766       .  S
Cr1478     O1480   1.763       .  S
Cr1479     O1480   1.773       .  S
O1481     Cr1499   1.920       .  S
O1481      C1489   1.245       .  A
O1482     Cr1499   2.016       .  S
O1482      C1483   1.269       .  A
C1483      O1484   1.263       .  A
C1483      C1576   1.474       .  S
O1484     Cr1500   1.975       .  S
O1485     Cr1500   2.029       .  S
O1485      C1486   1.270       .  A
C1486      O1487   1.254       .  A
C1486      C1600   1.484       .  S
O1487     Cr1501   1.961       .  S
O1488     Cr1501   2.069       .  S
O1488      C1489   1.277       .  A
C1489      C1528   1.482       .  S
O1490     Cr1499   2.061       .  S
O1490      C1498   1.272       .  A
O1491     Cr1499   1.952       .  S
O1491      C1492   1.261       .  A
C1492      O1493   1.271       .  A
C1492      C1609   1.467       .  S
O1493     Cr1500   2.020       .  S
O1494     Cr2196   1.954   1_545  S
O1494      C1495   1.257       .  A
C1495      O2192   1.278   1_545  A
C1495      C1537   1.477       .  S
O1496     Cr1501   2.036       .  S
O1496      C2191   1.278       .  A
O1497     Cr1501   1.949       .  S
O1497      C1498   1.247       .  A
C1498      C1585   1.481       .  S
Cr1499     O1502   1.752       .  S
Cr1500     O2190   1.954       .  S
Cr1500     O1502   1.768       .  S
Cr1501     O1502   1.758       .  S
O1503     Cr1521   1.973       .  S
O1503      C1511   1.249       .  A
O1504     Cr1521   2.022       .  S
O1504      C1505   1.274       .  A
C1505      O1506   1.252       .  A
C1505      C1525   1.482       .  S
O1507     Cr1522   2.031       .  S
C1508      O1509   1.258       .  A
O1509     Cr1523   1.949       .  S
O1510     Cr1523   2.030       .  S
O1510      C1511   1.260       .  A
C1511      C1561   1.479       .  S
O1512     Cr1521   2.066       .  S
O1512      C1520   1.283       .  A
O1513     Cr1521   1.979       .  S
C1514      O1515   1.273   1_455  A
C1514      C1684   1.503       .  S
O1515     Cr1522   2.037       .  S
O1516     Cr1522   1.982       .  S
O1516      C1517   1.262       .  A
C1517      O1518   1.265       .  A
C1517      C1552   1.476       .  S
O1519     Cr1523   1.930       .  S
O1519      C1520   1.254       .  A
C1520      C1540   1.481       .  S
Cr1521     O1524   1.763       .  S
Cr1523     O1524   1.763       .  S
C1525      C1526   1.414       .  A
C1525      C1530   1.403       .  A
C1526      C1527   1.406       .  A
C1526      H1531   1.083       .  S
C1527      C1528   1.404       .  A
C1527      O1532   1.370       .  S
C1528      C1529   1.411       .  A
C1529      C1530   1.395       .  A
C1529      H1533   1.084       .  S
C1530      O1534   1.373       .  S
O1534      H1535   0.990       .  S
C1537      C1538   1.398       .  A
C1537      C1542   1.414       .  A
C1538      C1539   1.397       .  A
C1538      H2239   1.084   1_545  S
C1539      C1540   1.417       .  A
C1539      O1544   1.372       .  S
C1540      C1541   1.403       .  A
C1541      C1542   1.406       .  A
C1541      H1545   1.084       .  S
C1542      O1546   1.372       .  S
H1543      C2234   1.084       .  S
O1544      H1548   0.991       .  S
O1546      H1547   0.991       .  S
C1549      C1550   1.404       .  A
C1549      C1554   1.405       .  A
C1550      C2247   1.403       .  A
C1550      H1555   1.083       .  S
C1551      C2246   1.403   1_545  A
C1551      C1552   1.409       .  A
C1551      O1556   1.371       .  S
C1552      C1553   1.404       .  A
C1553      C2250   1.398   1_545  A
C1553      H1557   1.084       .  S
C1554      C2249   1.398       .  A
C1554      O1558   1.372       .  S
O1556      H1560   0.991       .  S
O1558      H1559   0.991       .  S
C1561      C1562   1.402       .  A
C1561      C1566   1.407       .  A
C1562      C1563   1.407       .  A
C1562      H1567   1.084       .  S
C1563      C1564   1.414       .  A
C1563      O1568   1.372       .  S
C1564      C1565   1.407       .  A
C1565      C1566   1.402       .  A
C1565      H1569   1.083       .  S
C1566      O1570   1.371       .  S
O1568      H1572   0.991       .  S
O1570      H1571   0.991       .  S
C1573      C1574   1.403       .  A
C1573      C1578   1.407       .  A
C1574      C1575   1.401       .  A
C1574      H1579   1.083       .  S
C1575      C1576   1.408       .  A
C1575      O1580   1.372       .  S
C1576      C1577   1.404       .  A
C1577      C1578   1.400       .  A
C1577      H1581   1.083       .  S
C1578      O1582   1.372       .  S
O1580      H1584   0.992       .  S
O1582      H1583   0.992       .  S
C1586      C1587   1.410       .  A
C1587      C1588   1.412       .  A
C1587      O1592   1.371       .  S
C1588      C1589   1.410       .  A
C1589      C1590   1.403       .  A
C1589      H1593   1.083       .  S
C1590      O1594   1.372   1_655  S
O1592      H1596   0.991       .  S
O1594      H1595   0.991       .  S
C1597      C2294   1.407       .  A
C1597      C1602   1.407       .  A
C1598      C2293   1.407   1_545  A
C1598      C2295   1.400       .  A
C1598      H1603   1.084       .  S
C1599      C2294   1.400       .  A
C1599      C1600   1.410       .  A
C1599      O2300   1.372       .  S
C1600      C1601   1.409       .  A
C1601      C1602   1.402       .  A
C1601      H1605   1.083       .  S
C1602      O1606   1.371       .  S
O1604      C2295   1.372       .  S
O1604      H1608   0.992       .  S
O1606      H1607   0.992       .  S
C1609      C1610   1.402       .  A
C1609      C2310   1.406       .  A
C1610      C1959   1.391       .  A
C1610      H1615   1.084       .  S
C1611      C1958   1.391       .  A
C1611      C1612   1.410       .  A
C1611      O1616   1.372       .  S
C1612      C2138   1.474       .  S
C1612      C2309   1.407       .  A
C1613      C2308   1.407   1_545  A
C1613      C1962   1.399   1_554  A
C1613      H1617   1.084       .  S
C1614      C2305   1.406   1_545  A
C1614      C1961   1.399       .  A
C1614      O1618   1.372       .  S
O1616      H1620   0.992       .  S
O1618      H1619   0.992       .  S
C1621      C1622   1.404   1_554  A
C1621      C1626   1.406       .  A
C1622      C1971   1.390       .  A
C1622      H1627   1.084   1_556  S
C1623      C1970   1.390       .  A
C1623      C1624   1.407       .  A
C1623      O1628   1.372       .  S
C1624      C1625   1.406       .  A
C1625      C1974   1.397       .  A
C1625      H1629   1.084       .  S
C1626      C1973   1.397   1_554  A
C1626      O1630   1.372       .  S
O1628      H1632   0.992       .  S
O1630      H1631   0.992       .  S
C1633      C1634   1.407       .  A
C1633      C1638   1.406       .  A
C1634      C1635   1.398       .  A
C1634      H1639   1.084       .  S
C1635      C1636   1.409       .  A
C1635      O1640   1.372       .  S
C1636      C1637   1.409       .  A
C1637      C1638   1.401       .  A
C1637      H1641   1.084       .  S
C1638      O1642   1.372       .  S
O1640      H1644   0.992       .  S
O1642      H1643   0.992       .  S
C1645      C1646   1.403       .  A
C1645      C1650   1.406       .  A
C1646      C1647   1.398       .  A
C1646      H1651   1.083       .  S
C1647      C1648   1.407       .  A
C1647      O1652   1.372       .  S
C1648      C1649   1.400       .  A
C1649      C1650   1.396       .  A
C1649      H1653   1.081       .  S
C1650      O1654   1.372       .  S
O1652      H1656   0.992       .  S
O1654      H1655   0.992       .  S
C1657      C1658   1.404       .  A
C1657      C1662   1.415       .  A
C1658      C1659   1.405       .  A
C1658      H1663   1.083       .  S
C1660      C1661   1.402       .  A
C1661      H1665   1.084       .  S
C1662      O1666   1.372       .  S
O1666      H1667   0.992       .  S
C1669      C1670   1.400       .  A
C1670      C1671   1.398       .  A
C1670      H1675   1.084       .  S
C1671      C1672   1.416       .  A
C1671      O1676   1.373       .  S
C1673      C1674   1.395       .  A
C1673      H1677   1.083       .  S
C1674      O1678   1.371       .  S
O1676      H1680   0.992       .  S
O1678      H1679   0.992       .  S
C1681      C1686   1.419       .  A
C1682      C2031   1.412   1_554  A
C1682      H1687   1.083       .  S
C1683      C2030   1.412       .  A
C1683      O1688   1.372       .  S
C1684      C1685   1.403   1_455  A
C1685      C2034   1.408       .  A
C1685      H1689   1.083       .  S
C1686      C2033   1.408   1_554  A
C1686      O1690   1.371       .  S
O1688      H1692   0.992       .  S
O1690      H1691   0.992       .  S
C1693      C1694   1.397       .  A
C1693      C1698   1.416       .  A
C1694      C1695   1.395       .  A
C1694      H1699   1.084       .  S
C1695      C1696   1.416       .  A
C1695      O1700   1.371       .  S
C1696      C1697   1.399       .  A
C1697      C1698   1.405       .  A
C1697      H1701   1.078       .  S
C1698      O1702   1.372       .  S
O1700      H1704   0.991       .  S
O1702      H1703   0.992   1_655  S
C1705      C1706   1.410       .  A
C1705      C1710   1.402       .  A
C1706      C1707   1.408       .  A
C1706      H1711   1.084       .  S
C1707      C1708   1.407       .  A
C1707      O1712   1.371       .  S
C1708      C2106   1.481       .  S
C1708      C1709   1.409       .  A
C1709      C1710   1.396       .  A
C1709      H2409   1.083       .  S
C1710      O1714   1.372       .  S
O1712      H1716   0.992       .  S
H1713      C2405   1.083   1_545  S
O1714      H1715   0.992       .  S
C1717      C1718   1.405       .  A
C1717      C1722   1.409       .  A
C1718      C1719   1.403       .  A
C1718      H2419   1.084   1_545  S
C1719      C1720   1.408       .  A
C1719      O1724   1.370       .  S
C1720      C1721   1.403       .  A
C1721      C1722   1.397       .  A
C1721      H1725   1.084       .  S
C1722      O1726   1.372       .  S
H1723      C2414   1.084       .  S
O1724      H2424   0.992   1_545  S
O1726      H1727   0.992       .  S
H1728      O2420   0.992       .  S
C1729      C1730   1.402       .  A
C1729      C1734   1.409       .  A
C1730      C1731   1.398       .  A
C1730      H1735   1.084       .  S
C1731      C1732   1.406       .  A
C1731      O1736   1.370       .  S
C1732      C1733   1.401       .  A
C1733      C1734   1.398       .  A
C1733      H1737   1.084       .  S
C1734      O1738   1.373       .  S
O1736      H1740   0.992       .  S
O1738      H1739   0.991       .  S
O1741     Cr1759   1.965       .  S
O1741      C1749   1.249       .  A
O1742     Cr1759   2.029       .  S
O1742      C1743   1.275       .  A
C1743      O1744   1.250       .  A
C1743      C2041   1.476       .  S
O1744     Cr1760   1.938       .  S
O1745     Cr1760   2.036       .  S
O1745      C1746   1.277       .  A
C1746      O1747   1.256       .  A
C1746      C2020   1.477       .  S
O1747     Cr1761   1.947       .  S
O1748     Cr1761   2.023       .  S
O1748      C1749   1.260       .  A
C1749      C2068   1.475       .  S
O1750     Cr1759   2.071       .  S
O1750      C1758   1.283       .  A
O1751     Cr1759   1.973       .  S
O1751      C1752   1.259       .  A
C1752      O1753   1.274       .  A
C1752      C2029   1.504       .  S
O1753     Cr1760   2.044       .  S
O1754      C1755   1.260       .  A
C1755      C2077   1.469       .  S
O1756     Cr1761   2.005       .  S
O1757     Cr1761   1.927       .  S
O1757      C1758   1.253       .  A
C1758      C2752   1.481   1_545  S
Cr1759     O1762   1.760       .  S
Cr1760     O1762   1.772       .  S
Cr1761     O1762   1.762       .  S
O1763     Cr1781   1.921       .  S
O1763      C1771   1.245       .  A
O1764     Cr1781   2.016       .  S
O1764      C1765   1.269       .  A
C1765      O1766   1.261       .  A
C1765      C1993   1.467       .  S
O1766     Cr1782   1.963       .  S
O1767     Cr1782   2.029       .  S
O1767      C1768   1.270       .  A
C1768      O1769   1.254       .  A
C1768      C1984   1.481       .  S
O1769     Cr1783   1.957       .  S
O1770     Cr1783   2.070       .  S
O1770      C1771   1.278       .  A
C1771      C2044   1.480       .  S
O1772     Cr1781   2.057       .  S
O1772      C1780   1.271       .  A
O1773     Cr1781   1.946       .  S
O1773      C1774   1.258       .  A
C1774      O1775   1.270       .  A
C1774      C1969   1.466       .  S
O1775     Cr1782   2.020       .  S
O1776     Cr1782   1.952       .  S
O1776      C1777   1.256       .  A
C1777      O1778   1.278       .  A
C1777      C2053   1.478       .  S
O1778     Cr1783   2.040       .  S
O1779     Cr1783   1.943       .  S
O1779      C1780   1.246       .  A
C1780      C2008   1.476       .  S
Cr1781     O1784   1.752       .  S
Cr1782     O1784   1.766       .  S
Cr1783     O1784   1.752       .  S
O1785     Cr1803   2.002       .  S
O1785      C1793   1.264       .  A
O1786     Cr1803   1.970       .  S
O1786      C1787   1.253       .  A
C1787      O1788   1.262       .  A
C1787      C1996   1.465       .  S
O1788     Cr1804   2.009       .  S
O1789     Cr1804   1.962       .  S
O1789      C1790   1.258       .  A
C1790      O2487   1.269   1_545  A
C1790      C2656   1.474   1_545  S
O1791     Cr1805   2.011       .  S
O1791      C2486   1.269       .  A
O1792     Cr2501   1.980   1_545  S
O1792      C1793   1.261       .  A
C1793      C2065   1.477       .  S
O1794     Cr1803   1.963       .  S
O1794      C2498   1.260       .  A
O1795     Cr1803   2.029       .  S
O1795      C1796   1.270       .  A
C1796      O1797   1.256       .  A
C1796      C2080   1.464       .  S
O1797     Cr1804   1.956       .  S
O1798     Cr2500   1.999       .  S
O1798      C1799   1.263       .  A
C1799      O1800   1.268       .  A
C1799      C2005   1.488       .  S
O1800     Cr1805   2.000       .  S
O1801     Cr1805   2.021       .  S
O1801      C1802   1.270       .  A
C1802      O2490   1.260       .  A
C1802      C1945   1.481       .  S
Cr1803     O1806   1.768       .  S
Cr1804     O2494   1.999   1_545  S
Cr1804     O1806   1.763       .  S
Cr1805     O2488   1.980       .  S
Cr1805     O2502   1.771       .  S
O1806     Cr2501   1.771   1_545  S
O1807     Cr1825   2.015       .  S
O1807      C1815   1.267       .  A
O1808     Cr1825   1.971       .  S
O1808      C1809   1.254       .  A
C1809      O1810   1.263       .  A
C1809      C1921   1.470       .  S
O1810     Cr1826   2.018       .  S
O1811     Cr1826   1.954       .  S
O1811      C1812   1.256       .  A
C1812      O1813   1.270       .  A
C1812      C1972   1.466       .  S
O1813     Cr1827   2.013       .  S
O1814     Cr1827   1.984       .  S
O1814      C1815   1.262       .  A
C1815      C1912   1.492       .  S
O1816     Cr1825   1.958       .  S
O1816      C1824   1.259       .  A
O1817     Cr1825   2.039       .  S
O1817      C1818   1.273       .  A
C1818      O1819   1.257       .  A
C1818      C1897   1.469       .  S
O1819     Cr1826   1.957       .  S
O1820     Cr1826   2.011       .  S
O1820      C1821   1.265       .  A
C1821      O1822   1.268       .  A
C1821      C1936   1.498       .  S
O1822     Cr1827   2.004       .  S
O1823     Cr1827   2.021       .  S
O1823      C1824   1.271       .  A
C1824      C1981   1.479       .  S
Cr1825     O1828   1.766       .  S
Cr1826     O1828   1.763       .  S
Cr1827     O1828   1.773       .  S
O1829     Cr1847   1.920       .  S
O1829      C1837   1.245       .  A
O1830     Cr1847   2.016       .  S
O1830      C1831   1.269       .  A
C1831      O1832   1.263       .  A
C1831      C1924   1.474       .  S
O1832     Cr1848   1.975       .  S
O1833     Cr1848   2.029       .  S
O1833      C1834   1.270       .  A
C1834      O1835   1.254       .  A
C1834      C1948   1.484       .  S
O1835     Cr1849   1.961       .  S
O1836     Cr1849   2.069       .  S
O1836      C1837   1.277       .  A
C1837      C1876   1.482       .  S
O1838     Cr1847   2.061       .  S
O1838      C1846   1.272       .  A
O1839     Cr1847   1.952       .  S
O1839      C1840   1.261       .  A
C1840      O1841   1.271       .  A
C1840      C1957   1.467       .  S
O1841     Cr1848   2.020       .  S
O1842     Cr2544   1.954   1_545  S
O1842      C1843   1.257       .  A
C1843      O2540   1.278   1_545  A
C1843      C1885   1.477       .  S
O1844     Cr1849   2.036       .  S
O1844      C2539   1.278       .  A
O1845     Cr1849   1.949       .  S
O1845      C1846   1.247       .  A
C1846      C1933   1.481       .  S
Cr1847     O1850   1.752       .  S
Cr1848     O2538   1.954       .  S
Cr1848     O1850   1.768       .  S
Cr1849     O1850   1.758       .  S
O1851     Cr1869   1.973       .  S
O1851      C1859   1.249       .  A
O1852     Cr1869   2.022       .  S
O1852      C1853   1.274       .  A
C1853      O1854   1.252       .  A
C1853      C1873   1.482       .  S
O1855     Cr1870   2.031       .  S
C1856      O1857   1.258       .  A
O1857     Cr1871   1.949       .  S
O1858     Cr1871   2.030       .  S
O1858      C1859   1.260       .  A
C1859      C1909   1.479       .  S
O1860     Cr1869   2.066       .  S
O1860      C1868   1.283       .  A
O1861     Cr1869   1.979       .  S
C1862      O1863   1.273   1_455  A
C1862      C2032   1.503       .  S
O1863     Cr1870   2.037       .  S
O1864     Cr1870   1.982       .  S
O1864      C1865   1.262       .  A
C1865      O1866   1.265       .  A
C1865      C1900   1.476       .  S
O1867     Cr1871   1.930       .  S
O1867      C1868   1.254       .  A
C1868      C1888   1.481       .  S
Cr1869     O1872   1.763       .  S
Cr1871     O1872   1.763       .  S
C1873      C1874   1.414       .  A
C1873      C1878   1.403       .  A
C1874      C1875   1.406       .  A
C1874      H1879   1.083       .  S
C1875      C1876   1.404       .  A
C1875      O1880   1.370       .  S
C1876      C1877   1.411       .  A
C1877      C1878   1.395       .  A
C1877      H1881   1.084       .  S
C1878      O1882   1.373       .  S
O1882      H1883   0.990       .  S
C1885      C1886   1.398       .  A
C1885      C1890   1.414       .  A
C1886      C1887   1.397       .  A
C1886      H2587   1.084   1_545  S
C1887      C1888   1.417       .  A
C1887      O1892   1.372       .  S
C1888      C1889   1.403       .  A
C1889      C1890   1.406       .  A
C1889      H1893   1.084       .  S
C1890      O1894   1.372       .  S
H1891      C2582   1.084       .  S
O1892      H1896   0.991       .  S
O1894      H1895   0.991       .  S
C1897      C1898   1.404       .  A
C1897      C1902   1.405       .  A
C1898      C2595   1.403       .  A
C1898      H1903   1.083       .  S
C1899      C2594   1.403   1_545  A
C1899      C1900   1.409       .  A
C1899      O1904   1.371       .  S
C1900      C1901   1.404       .  A
C1901      C2598   1.398   1_545  A
C1901      H1905   1.084       .  S
C1902      C2597   1.398       .  A
C1902      O1906   1.372       .  S
O1904      H1908   0.991       .  S
O1906      H1907   0.991       .  S
C1909      C1910   1.402       .  A
C1909      C1914   1.407       .  A
C1910      C1911   1.407       .  A
C1910      H1915   1.084       .  S
C1911      C1912   1.414       .  A
C1911      O1916   1.372       .  S
C1912      C1913   1.407       .  A
C1913      C1914   1.402       .  A
C1913      H1917   1.083       .  S
C1914      O1918   1.371       .  S
O1916      H1920   0.991       .  S
O1918      H1919   0.991       .  S
C1921      C1922   1.403       .  A
C1921      C1926   1.407       .  A
C1922      C1923   1.401       .  A
C1922      H1927   1.083       .  S
C1923      C1924   1.408       .  A
C1923      O1928   1.372       .  S
C1924      C1925   1.404       .  A
C1925      C1926   1.400       .  A
C1925      H1929   1.083       .  S
C1926      O1930   1.372       .  S
O1928      H1932   0.992       .  S
O1930      H1931   0.992       .  S
C1934      C1935   1.410       .  A
C1935      C1936   1.412       .  A
C1935      O1940   1.371       .  S
C1936      C1937   1.410       .  A
C1937      C1938   1.403       .  A
C1937      H1941   1.083       .  S
C1938      O1942   1.372   1_655  S
O1940      H1944   0.991       .  S
O1942      H1943   0.991       .  S
C1945      C2642   1.407       .  A
C1945      C1950   1.407       .  A
C1946      C2641   1.407   1_545  A
C1946      C2643   1.400       .  A
C1946      H1951   1.084       .  S
C1947      C2642   1.400       .  A
C1947      C1948   1.410       .  A
C1947      O2648   1.372       .  S
C1948      C1949   1.409       .  A
C1949      C1950   1.402       .  A
C1949      H1953   1.083       .  S
C1950      O1954   1.371       .  S
O1952      C2643   1.372       .  S
O1952      H1956   0.992       .  S
O1954      H1955   0.992       .  S
C1957      C1958   1.402   1_556  A
C1957      C2658   1.406       .  A
C1958      H1963   1.084   1_554  S
C1959      C1960   1.410       .  A
C1959      O1964   1.372       .  S
C1960      C2486   1.474       .  S
C1960      C2657   1.407       .  A
C1961      C2656   1.407   1_545  A
C1961      H1965   1.084       .  S
C1962      C2653   1.406   1_545  A
C1962      O1966   1.372       .  S
O1964      H1968   0.992       .  S
O1966      H1967   0.992       .  S
C1969      C1970   1.404       .  A
C1969      C1974   1.406       .  A
C1970      H1975   1.084       .  S
C1971      C1972   1.407       .  A
C1971      O1976   1.372       .  S
C1972      C1973   1.406       .  A
C1973      H1977   1.084       .  S
C1974      O1978   1.372       .  S
O1976      H1980   0.992       .  S
O1978      H1979   0.992       .  S
C1981      C1982   1.407       .  A
C1981      C1986   1.406       .  A
C1982      C1983   1.398       .  A
C1982      H1987   1.084       .  S
C1983      C1984   1.409       .  A
C1983      O1988   1.372       .  S
C1984      C1985   1.409       .  A
C1985      C1986   1.401       .  A
C1985      H1989   1.084       .  S
C1986      O1990   1.372       .  S
O1988      H1992   0.992       .  S
O1990      H1991   0.992       .  S
C1993      C1994   1.403       .  A
C1993      C1998   1.406       .  A
C1994      C1995   1.398       .  A
C1994      H1999   1.083       .  S
C1995      C1996   1.407       .  A
C1995      O2000   1.372       .  S
C1996      C1997   1.400       .  A
C1997      C1998   1.396       .  A
C1997      H2001   1.081       .  S
C1998      O2002   1.372       .  S
O2000      H2004   0.992       .  S
O2002      H2003   0.992       .  S
C2005      C2006   1.404       .  A
C2005      C2010   1.415       .  A
C2006      C2007   1.405       .  A
C2006      H2011   1.083       .  S
C2008      C2009   1.402       .  A
C2009      H2013   1.084       .  S
C2010      O2014   1.372       .  S
O2014      H2015   0.992       .  S
C2017      C2018   1.400       .  A
C2018      C2019   1.398       .  A
C2018      H2023   1.084       .  S
C2019      C2020   1.416       .  A
C2019      O2024   1.373       .  S
C2021      C2022   1.395       .  A
C2021      H2025   1.083       .  S
C2022      O2026   1.371       .  S
O2024      H2028   0.992       .  S
O2026      H2027   0.992       .  S
C2029      C2034   1.419       .  A
C2030      H2035   1.083       .  S
C2031      O2036   1.372       .  S
C2032      C2033   1.403   1_455  A
C2033      H2037   1.083       .  S
C2034      O2038   1.371       .  S
O2036      H2040   0.992       .  S
O2038      H2039   0.992       .  S
C2041      C2042   1.397       .  A
C2041      C2046   1.416       .  A
C2042      C2043   1.395       .  A
C2042      H2047   1.084       .  S
C2043      C2044   1.416       .  A
C2043      O2048   1.371       .  S
C2044      C2045   1.399       .  A
C2045      C2046   1.405       .  A
C2045      H2049   1.078       .  S
C2046      O2050   1.372       .  S
O2048      H2052   0.991       .  S
O2050      H2051   0.992   1_655  S
C2053      C2054   1.410       .  A
C2053      C2058   1.402       .  A
C2054      C2055   1.408       .  A
C2054      H2059   1.084       .  S
C2055      C2056   1.407       .  A
C2055      O2060   1.371       .  S
C2056      C2454   1.481       .  S
C2056      C2057   1.409       .  A
C2057      C2058   1.396       .  A
C2057      H2757   1.083       .  S
C2058      O2062   1.372       .  S
O2060      H2064   0.992       .  S
H2061      C2753   1.083   1_545  S
O2062      H2063   0.992       .  S
C2065      C2066   1.405       .  A
C2065      C2070   1.409       .  A
C2066      C2067   1.403       .  A
C2066      H2767   1.084   1_545  S
C2067      C2068   1.408       .  A
C2067      O2072   1.370       .  S
C2068      C2069   1.403       .  A
C2069      C2070   1.397       .  A
C2069      H2073   1.084       .  S
C2070      O2074   1.372       .  S
H2071      C2762   1.084       .  S
O2072      H2772   0.992   1_545  S
O2074      H2075   0.992       .  S
H2076      O2768   0.992       .  S
C2077      C2078   1.402       .  A
C2077      C2082   1.409       .  A
C2078      C2079   1.398       .  A
C2078      H2083   1.084       .  S
C2079      C2080   1.406       .  A
C2079      O2084   1.370       .  S
C2080      C2081   1.401       .  A
C2081      C2082   1.398       .  A
C2081      H2085   1.084       .  S
C2082      O2086   1.373       .  S
O2084      H2088   0.992       .  S
O2086      H2087   0.991       .  S
O2089     Cr2107   1.965       .  S
O2089      C2097   1.249       .  A
O2090     Cr2107   2.029       .  S
O2090      C2091   1.275       .  A
C2091      O2092   1.250       .  A
C2091      C2389   1.476       .  S
O2092     Cr2108   1.938       .  S
O2093     Cr2108   2.036       .  S
O2093      C2094   1.277       .  A
C2094      O2095   1.256       .  A
C2094      C2368   1.477       .  S
O2095     Cr2109   1.947       .  S
O2096     Cr2109   2.023       .  S
O2096      C2097   1.260       .  A
C2097      C2416   1.475       .  S
O2098     Cr2107   2.071       .  S
O2098      C2106   1.283       .  A
O2099     Cr2107   1.973       .  S
O2099      C2100   1.259       .  A
C2100      O2101   1.274       .  A
C2100      C2377   1.504       .  S
O2101     Cr2108   2.044       .  S
O2102      C2103   1.260       .  A
C2103      C2425   1.469       .  S
O2104     Cr2109   2.005       .  S
O2105     Cr2109   1.927       .  S
O2105      C2106   1.253       .  A
Cr2107     O2110   1.760       .  S
Cr2108     O2110   1.772       .  S
Cr2109     O2110   1.762       .  S
O2111     Cr2129   1.921       .  S
O2111      C2119   1.245       .  A
O2112     Cr2129   2.016       .  S
O2112      C2113   1.269       .  A
C2113      O2114   1.261       .  A
C2113      C2341   1.467       .  S
O2114     Cr2130   1.963       .  S
O2115     Cr2130   2.029       .  S
O2115      C2116   1.270       .  A
C2116      O2117   1.254       .  A
C2116      C2332   1.481       .  S
O2117     Cr2131   1.957       .  S
O2118     Cr2131   2.070       .  S
O2118      C2119   1.278       .  A
C2119      C2392   1.480       .  S
O2120     Cr2129   2.057       .  S
O2120      C2128   1.271       .  A
O2121     Cr2129   1.946       .  S
O2121      C2122   1.258       .  A
C2122      O2123   1.270       .  A
C2122      C2317   1.466       .  S
O2123     Cr2130   2.020       .  S
O2124     Cr2130   1.952       .  S
O2124      C2125   1.256       .  A
C2125      O2126   1.278       .  A
C2125      C2401   1.478       .  S
O2126     Cr2131   2.040       .  S
O2127     Cr2131   1.943       .  S
O2127      C2128   1.246       .  A
C2128      C2356   1.476       .  S
Cr2129     O2132   1.752       .  S
Cr2130     O2132   1.766       .  S
Cr2131     O2132   1.752       .  S
O2133     Cr2151   2.002       .  S
O2133      C2141   1.264       .  A
O2134     Cr2151   1.970       .  S
O2134      C2135   1.253       .  A
C2135      O2136   1.262       .  A
C2135      C2344   1.465       .  S
O2136     Cr2152   2.009       .  S
O2137     Cr2152   1.962       .  S
O2137      C2138   1.258       .  A
O2139     Cr2153   2.011       .  S
O2140      C2141   1.261       .  A
C2141      C2413   1.477       .  S
O2142     Cr2151   1.963       .  S
O2143     Cr2151   2.029       .  S
O2143      C2144   1.270       .  A
C2144      O2145   1.256       .  A
C2144      C2428   1.464       .  S
O2145     Cr2152   1.956       .  S
O2146      C2147   1.263       .  A
C2147      O2148   1.268       .  A
C2147      C2353   1.488       .  S
O2148     Cr2153   2.000       .  S
O2149     Cr2153   2.021       .  S
O2149      C2150   1.270   1_565  A
C2150      C2293   1.481   1_545  S
Cr2151     O2154   1.768       .  S
Cr2152     O2154   1.763       .  S
O2155     Cr2173   2.015       .  S
O2155      C2163   1.267       .  A
O2156     Cr2173   1.971       .  S
O2156      C2157   1.254       .  A
C2157      O2158   1.263       .  A
C2157      C2269   1.470       .  S
O2158     Cr2174   2.018       .  S
O2159     Cr2174   1.954       .  S
O2159      C2160   1.256       .  A
C2160      O2161   1.270       .  A
C2160      C2320   1.466       .  S
O2161     Cr2175   2.013       .  S
O2162     Cr2175   1.984       .  S
O2162      C2163   1.262       .  A
C2163      C2260   1.492       .  S
O2164     Cr2173   1.958       .  S
O2164      C2172   1.259       .  A
O2165     Cr2173   2.039       .  S
O2165      C2166   1.273       .  A
C2166      O2167   1.257       .  A
C2166      C2245   1.469       .  S
O2167     Cr2174   1.957       .  S
O2168     Cr2174   2.011       .  S
O2168      C2169   1.265       .  A
C2169      O2170   1.268       .  A
C2169      C2284   1.498       .  S
O2170     Cr2175   2.004       .  S
O2171     Cr2175   2.021       .  S
O2171      C2172   1.271       .  A
C2172      C2329   1.479       .  S
Cr2173     O2176   1.766       .  S
Cr2174     O2176   1.763       .  S
Cr2175     O2176   1.773       .  S
O2177     Cr2195   1.920       .  S
O2177      C2185   1.245       .  A
O2178     Cr2195   2.016       .  S
O2178      C2179   1.269       .  A
C2179      O2180   1.263       .  A
C2179      C2272   1.474       .  S
O2180     Cr2196   1.975       .  S
O2181     Cr2196   2.029       .  S
O2181      C2182   1.270       .  A
C2182      O2183   1.254       .  A
C2182      C2296   1.484       .  S
O2183     Cr2197   1.961       .  S
O2184     Cr2197   2.069       .  S
O2184      C2185   1.277       .  A
C2185      C2224   1.482       .  S
O2186     Cr2195   2.061       .  S
O2186      C2194   1.272       .  A
O2187     Cr2195   1.952       .  S
O2187      C2188   1.261       .  A
C2188      O2189   1.271       .  A
C2188      C2305   1.467       .  S
O2189     Cr2196   2.020       .  S
O2190      C2191   1.257       .  A
C2191      C2233   1.477       .  S
O2192     Cr2197   2.036       .  S
O2193     Cr2197   1.949       .  S
O2193      C2194   1.247       .  A
C2194      C2281   1.481       .  S
Cr2195     O2198   1.752       .  S
Cr2196     O2198   1.768       .  S
Cr2197     O2198   1.758       .  S
O2199     Cr2217   1.973       .  S
O2199      C2207   1.249       .  A
O2200     Cr2217   2.022       .  S
O2200      C2201   1.274       .  A
C2201      O2202   1.252       .  A
C2201      C2221   1.482       .  S
O2203     Cr2218   2.031       .  S
C2204      O2205   1.258       .  A
O2205     Cr2219   1.949       .  S
O2206     Cr2219   2.030       .  S
O2206      C2207   1.260       .  A
C2207      C2257   1.479       .  S
O2208     Cr2217   2.066       .  S
O2208      C2216   1.283       .  A
O2209     Cr2217   1.979       .  S
C2210      O2211   1.273   1_455  A
C2210      C2380   1.503       .  S
O2211     Cr2218   2.037       .  S
O2212     Cr2218   1.982       .  S
O2212      C2213   1.262       .  A
C2213      O2214   1.265       .  A
C2213      C2248   1.476       .  S
O2215     Cr2219   1.930       .  S
O2215      C2216   1.254       .  A
C2216      C2236   1.481       .  S
Cr2217     O2220   1.763       .  S
Cr2219     O2220   1.763       .  S
C2221      C2222   1.414       .  A
C2221      C2226   1.403       .  A
C2222      C2223   1.406       .  A
C2222      H2227   1.083       .  S
C2223      C2224   1.404       .  A
C2223      O2228   1.370       .  S
C2224      C2225   1.411       .  A
C2225      C2226   1.395       .  A
C2225      H2229   1.084       .  S
C2226      O2230   1.373       .  S
O2230      H2231   0.990       .  S
C2233      C2234   1.398       .  A
C2233      C2238   1.414       .  A
C2234      C2235   1.397       .  A
C2235      C2236   1.417       .  A
C2235      O2240   1.372       .  S
C2236      C2237   1.403       .  A
C2237      C2238   1.406       .  A
C2237      H2241   1.084       .  S
C2238      O2242   1.372       .  S
O2240      H2244   0.991       .  S
O2242      H2243   0.991       .  S
C2245      C2246   1.404       .  A
C2245      C2250   1.405       .  A
C2246      H2251   1.083       .  S
C2247      C2248   1.409       .  A
C2247      O2252   1.371       .  S
C2248      C2249   1.404       .  A
C2249      H2253   1.084       .  S
C2250      O2254   1.372       .  S
O2252      H2256   0.991       .  S
O2254      H2255   0.991       .  S
C2257      C2258   1.402       .  A
C2257      C2262   1.407       .  A
C2258      C2259   1.407       .  A
C2258      H2263   1.084       .  S
C2259      C2260   1.414       .  A
C2259      O2264   1.372       .  S
C2260      C2261   1.407       .  A
C2261      C2262   1.402       .  A
C2261      H2265   1.083       .  S
C2262      O2266   1.371       .  S
O2264      H2268   0.991       .  S
O2266      H2267   0.991       .  S
C2269      C2270   1.403       .  A
C2269      C2274   1.407       .  A
C2270      C2271   1.401       .  A
C2270      H2275   1.083       .  S
C2271      C2272   1.408       .  A
C2271      O2276   1.372       .  S
C2272      C2273   1.404       .  A
C2273      C2274   1.400       .  A
C2273      H2277   1.083       .  S
C2274      O2278   1.372       .  S
O2276      H2280   0.992       .  S
O2278      H2279   0.992       .  S
C2282      C2283   1.410       .  A
C2283      C2284   1.412       .  A
C2283      O2288   1.371       .  S
C2284      C2285   1.410       .  A
C2285      C2286   1.403       .  A
C2285      H2289   1.083       .  S
C2286      O2290   1.372   1_655  S
O2288      H2292   0.991       .  S
O2290      H2291   0.991       .  S
C2293      C2298   1.407       .  A
C2294      H2299   1.084       .  S
C2295      C2296   1.410   1_545  A
C2296      C2297   1.409       .  A
C2297      C2298   1.402       .  A
C2297      H2301   1.083       .  S
C2298      O2302   1.371       .  S
O2300      H2304   0.992       .  S
O2302      H2303   0.992       .  S
C2305      C2306   1.402       .  A
C2306      C2655   1.391       .  A
C2306      H2311   1.084       .  S
C2307      C2654   1.391       .  A
C2307      C2308   1.410       .  A
C2307      O2312   1.372       .  S
C2309      C2658   1.399   1_554  A
C2309      H2313   1.084       .  S
C2310      C2657   1.399       .  A
C2310      O2314   1.372       .  S
O2312      H2316   0.992       .  S
O2314      H2315   0.992       .  S
C2317      C2318   1.404   1_554  A
C2317      C2322   1.406       .  A
C2318      C2667   1.390       .  A
C2318      H2323   1.084   1_556  S
C2319      C2666   1.390       .  A
C2319      C2320   1.407       .  A
C2319      O2324   1.372       .  S
C2320      C2321   1.406       .  A
C2321      C2670   1.397       .  A
C2321      H2325   1.084       .  S
C2322      C2669   1.397   1_554  A
C2322      O2326   1.372       .  S
O2324      H2328   0.992       .  S
O2326      H2327   0.992       .  S
C2329      C2330   1.407       .  A
C2329      C2334   1.406       .  A
C2330      C2331   1.398       .  A
C2330      H2335   1.084       .  S
C2331      C2332   1.409       .  A
C2331      O2336   1.372       .  S
C2332      C2333   1.409       .  A
C2333      C2334   1.401       .  A
C2333      H2337   1.084       .  S
C2334      O2338   1.372       .  S
O2336      H2340   0.992       .  S
O2338      H2339   0.992       .  S
C2341      C2342   1.403       .  A
C2341      C2346   1.406       .  A
C2342      C2343   1.398       .  A
C2342      H2347   1.083       .  S
C2343      C2344   1.407       .  A
C2343      O2348   1.372       .  S
C2344      C2345   1.400       .  A
C2345      C2346   1.396       .  A
C2345      H2349   1.081       .  S
C2346      O2350   1.372       .  S
O2348      H2352   0.992       .  S
O2350      H2351   0.992       .  S
C2353      C2354   1.404       .  A
C2353      C2358   1.415       .  A
C2354      C2355   1.405       .  A
C2354      H2359   1.083       .  S
C2356      C2357   1.402       .  A
C2357      H2361   1.084       .  S
C2358      O2362   1.372       .  S
O2362      H2363   0.992       .  S
C2365      C2366   1.400       .  A
C2366      C2367   1.398       .  A
C2366      H2371   1.084       .  S
C2367      C2368   1.416       .  A
C2367      O2372   1.373       .  S
C2369      C2370   1.395       .  A
C2369      H2373   1.083       .  S
C2370      O2374   1.371       .  S
O2372      H2376   0.992       .  S
O2374      H2375   0.992       .  S
C2377      C2382   1.419       .  A
C2378      C2727   1.412   1_554  A
C2378      H2383   1.083       .  S
C2379      C2726   1.412       .  A
C2379      O2384   1.372       .  S
C2380      C2381   1.403   1_455  A
C2381      C2730   1.408       .  A
C2381      H2385   1.083       .  S
C2382      C2729   1.408   1_554  A
C2382      O2386   1.371       .  S
O2384      H2388   0.992       .  S
O2386      H2387   0.992       .  S
C2389      C2390   1.397       .  A
C2389      C2394   1.416       .  A
C2390      C2391   1.395       .  A
C2390      H2395   1.084       .  S
C2391      C2392   1.416       .  A
C2391      O2396   1.371       .  S
C2392      C2393   1.399       .  A
C2393      C2394   1.405       .  A
C2393      H2397   1.078       .  S
C2394      O2398   1.372       .  S
O2396      H2400   0.991       .  S
O2398      H2399   0.992   1_655  S
C2401      C2402   1.410       .  A
C2401      C2406   1.402       .  A
C2402      C2403   1.408       .  A
C2402      H2407   1.084       .  S
C2403      C2404   1.407       .  A
C2403      O2408   1.371       .  S
C2404      C2405   1.409       .  A
C2405      C2406   1.396       .  A
C2406      O2410   1.372       .  S
O2408      H2412   0.992       .  S
O2410      H2411   0.992       .  S
C2413      C2414   1.405       .  A
C2413      C2418   1.409       .  A
C2414      C2415   1.403       .  A
C2415      C2416   1.408       .  A
C2415      O2420   1.370       .  S
C2416      C2417   1.403       .  A
C2417      C2418   1.397       .  A
C2417      H2421   1.084       .  S
C2418      O2422   1.372       .  S
O2422      H2423   0.992       .  S
C2425      C2426   1.402       .  A
C2425      C2430   1.409       .  A
C2426      C2427   1.398       .  A
C2426      H2431   1.084       .  S
C2427      C2428   1.406       .  A
C2427      O2432   1.370       .  S
C2428      C2429   1.401       .  A
C2429      C2430   1.398       .  A
C2429      H2433   1.084       .  S
C2430      O2434   1.373       .  S
O2432      H2436   0.992       .  S
O2434      H2435   0.991       .  S
O2437     Cr2455   1.965       .  S
O2437      C2445   1.249       .  A
O2438     Cr2455   2.029       .  S
O2438      C2439   1.275       .  A
C2439      O2440   1.250       .  A
C2439      C2737   1.476       .  S
O2440     Cr2456   1.938       .  S
O2441     Cr2456   2.036       .  S
O2441      C2442   1.277       .  A
C2442      O2443   1.256       .  A
C2442      C2716   1.477       .  S
O2443     Cr2457   1.947       .  S
O2444     Cr2457   2.023       .  S
O2444      C2445   1.260       .  A
C2445      C2764   1.475       .  S
O2446     Cr2455   2.071       .  S
O2446      C2454   1.283       .  A
O2447     Cr2455   1.973       .  S
O2447      C2448   1.259       .  A
C2448      O2449   1.274       .  A
C2448      C2725   1.504       .  S
O2449     Cr2456   2.044       .  S
O2450      C2451   1.260       .  A
C2451      C2773   1.469       .  S
O2452     Cr2457   2.005       .  S
O2453     Cr2457   1.927       .  S
O2453      C2454   1.253       .  A
Cr2455     O2458   1.760       .  S
Cr2456     O2458   1.772       .  S
Cr2457     O2458   1.762       .  S
O2459     Cr2477   1.921       .  S
O2459      C2467   1.245       .  A
O2460     Cr2477   2.016       .  S
O2460      C2461   1.269       .  A
C2461      O2462   1.261       .  A
C2461      C2689   1.467       .  S
O2462     Cr2478   1.963       .  S
O2463     Cr2478   2.029       .  S
O2463      C2464   1.270       .  A
C2464      O2465   1.254       .  A
C2464      C2680   1.481       .  S
O2465     Cr2479   1.957       .  S
O2466     Cr2479   2.070       .  S
O2466      C2467   1.278       .  A
C2467      C2740   1.480       .  S
O2468     Cr2477   2.057       .  S
O2468      C2476   1.271       .  A
O2469     Cr2477   1.946       .  S
O2469      C2470   1.258       .  A
C2470      O2471   1.270       .  A
C2470      C2665   1.466       .  S
O2471     Cr2478   2.020       .  S
O2472     Cr2478   1.952       .  S
O2472      C2473   1.256       .  A
C2473      O2474   1.278       .  A
C2473      C2749   1.478       .  S
O2474     Cr2479   2.040       .  S
O2475     Cr2479   1.943       .  S
O2475      C2476   1.246       .  A
C2476      C2704   1.476       .  S
Cr2477     O2480   1.752       .  S
Cr2478     O2480   1.766       .  S
Cr2479     O2480   1.752       .  S
O2481     Cr2499   2.002       .  S
O2481      C2489   1.264       .  A
O2482     Cr2499   1.970       .  S
O2482      C2483   1.253       .  A
C2483      O2484   1.262       .  A
C2483      C2692   1.465       .  S
O2484     Cr2500   2.009       .  S
O2485     Cr2500   1.962       .  S
O2485      C2486   1.258       .  A
O2487     Cr2501   2.011       .  S
O2488      C2489   1.261       .  A
C2489      C2761   1.477       .  S
O2490     Cr2499   1.963       .  S
O2491     Cr2499   2.029       .  S
O2491      C2492   1.270       .  A
C2492      O2493   1.256       .  A
C2492      C2776   1.464       .  S
O2493     Cr2500   1.956       .  S
O2494      C2495   1.263       .  A
C2495      O2496   1.268       .  A
C2495      C2701   1.488       .  S
O2496     Cr2501   2.000       .  S
O2497     Cr2501   2.021       .  S
O2497      C2498   1.270   1_565  A
C2498      C2641   1.481   1_545  S
Cr2499     O2502   1.768       .  S
Cr2500     O2502   1.763       .  S
O2503     Cr2521   2.015       .  S
O2503      C2511   1.267       .  A
O2504     Cr2521   1.971       .  S
O2504      C2505   1.254       .  A
C2505      O2506   1.263       .  A
C2505      C2617   1.470       .  S
O2506     Cr2522   2.018       .  S
O2507     Cr2522   1.954       .  S
O2507      C2508   1.256       .  A
C2508      O2509   1.270       .  A
C2508      C2668   1.466       .  S
O2509     Cr2523   2.013       .  S
O2510     Cr2523   1.984       .  S
O2510      C2511   1.262       .  A
C2511      C2608   1.492       .  S
O2512     Cr2521   1.958       .  S
O2512      C2520   1.259       .  A
O2513     Cr2521   2.039       .  S
O2513      C2514   1.273       .  A
C2514      O2515   1.257       .  A
C2514      C2593   1.469       .  S
O2515     Cr2522   1.957       .  S
O2516     Cr2522   2.011       .  S
O2516      C2517   1.265       .  A
C2517      O2518   1.268       .  A
C2517      C2632   1.498       .  S
O2518     Cr2523   2.004       .  S
O2519     Cr2523   2.021       .  S
O2519      C2520   1.271       .  A
C2520      C2677   1.479       .  S
Cr2521     O2524   1.766       .  S
Cr2522     O2524   1.763       .  S
Cr2523     O2524   1.773       .  S
O2525     Cr2543   1.920       .  S
O2525      C2533   1.245       .  A
O2526     Cr2543   2.016       .  S
O2526      C2527   1.269       .  A
C2527      O2528   1.263       .  A
C2527      C2620   1.474       .  S
O2528     Cr2544   1.975       .  S
O2529     Cr2544   2.029       .  S
O2529      C2530   1.270       .  A
C2530      O2531   1.254       .  A
C2530      C2644   1.484       .  S
O2531     Cr2545   1.961       .  S
O2532     Cr2545   2.069       .  S
O2532      C2533   1.277       .  A
C2533      C2572   1.482       .  S
O2534     Cr2543   2.061       .  S
O2534      C2542   1.272       .  A
O2535     Cr2543   1.952       .  S
O2535      C2536   1.261       .  A
C2536      O2537   1.271       .  A
C2536      C2653   1.467       .  S
O2537     Cr2544   2.020       .  S
O2538      C2539   1.257       .  A
C2539      C2581   1.477       .  S
O2540     Cr2545   2.036       .  S
O2541     Cr2545   1.949       .  S
O2541      C2542   1.247       .  A
C2542      C2629   1.481       .  S
Cr2543     O2546   1.752       .  S
Cr2544     O2546   1.768       .  S
Cr2545     O2546   1.758       .  S
O2547     Cr2565   1.973       .  S
O2547      C2555   1.249       .  A
O2548     Cr2565   2.022       .  S
O2548      C2549   1.274       .  A
C2549      O2550   1.252       .  A
C2549      C2569   1.482       .  S
O2551     Cr2566   2.031       .  S
C2552      O2553   1.258       .  A
O2553     Cr2567   1.949       .  S
O2554     Cr2567   2.030       .  S
O2554      C2555   1.260       .  A
C2555      C2605   1.479       .  S
O2556     Cr2565   2.066       .  S
O2556      C2564   1.283       .  A
O2557     Cr2565   1.979       .  S
C2558      O2559   1.273   1_455  A
C2558      C2728   1.503       .  S
O2559     Cr2566   2.037       .  S
O2560     Cr2566   1.982       .  S
O2560      C2561   1.262       .  A
C2561      O2562   1.265       .  A
C2561      C2596   1.476       .  S
O2563     Cr2567   1.930       .  S
O2563      C2564   1.254       .  A
C2564      C2584   1.481       .  S
Cr2565     O2568   1.763       .  S
Cr2567     O2568   1.763       .  S
C2569      C2570   1.414       .  A
C2569      C2574   1.403       .  A
C2570      C2571   1.406       .  A
C2570      H2575   1.083       .  S
C2571      C2572   1.404       .  A
C2571      O2576   1.370       .  S
C2572      C2573   1.411       .  A
C2573      C2574   1.395       .  A
C2573      H2577   1.084       .  S
C2574      O2578   1.373       .  S
O2578      H2579   0.990       .  S
C2581      C2582   1.398       .  A
C2581      C2586   1.414       .  A
C2582      C2583   1.397       .  A
C2583      C2584   1.417       .  A
C2583      O2588   1.372       .  S
C2584      C2585   1.403       .  A
C2585      C2586   1.406       .  A
C2585      H2589   1.084       .  S
C2586      O2590   1.372       .  S
O2588      H2592   0.991       .  S
O2590      H2591   0.991       .  S
C2593      C2594   1.404       .  A
C2593      C2598   1.405       .  A
C2594      H2599   1.083       .  S
C2595      C2596   1.409       .  A
C2595      O2600   1.371       .  S
C2596      C2597   1.404       .  A
C2597      H2601   1.084       .  S
C2598      O2602   1.372       .  S
O2600      H2604   0.991       .  S
O2602      H2603   0.991       .  S
C2605      C2606   1.402       .  A
C2605      C2610   1.407       .  A
C2606      C2607   1.407       .  A
C2606      H2611   1.084       .  S
C2607      C2608   1.414       .  A
C2607      O2612   1.372       .  S
C2608      C2609   1.407       .  A
C2609      C2610   1.402       .  A
C2609      H2613   1.083       .  S
C2610      O2614   1.371       .  S
O2612      H2616   0.991       .  S
O2614      H2615   0.991       .  S
C2617      C2618   1.403       .  A
C2617      C2622   1.407       .  A
C2618      C2619   1.401       .  A
C2618      H2623   1.083       .  S
C2619      C2620   1.408       .  A
C2619      O2624   1.372       .  S
C2620      C2621   1.404       .  A
C2621      C2622   1.400       .  A
C2621      H2625   1.083       .  S
C2622      O2626   1.372       .  S
O2624      H2628   0.992       .  S
O2626      H2627   0.992       .  S
C2630      C2631   1.410       .  A
C2631      C2632   1.412       .  A
C2631      O2636   1.371       .  S
C2632      C2633   1.410       .  A
C2633      C2634   1.403       .  A
C2633      H2637   1.083       .  S
C2634      O2638   1.372   1_655  S
O2636      H2640   0.991       .  S
O2638      H2639   0.991       .  S
C2641      C2646   1.407       .  A
C2642      H2647   1.084       .  S
C2643      C2644   1.410   1_545  A
C2644      C2645   1.409       .  A
C2645      C2646   1.402       .  A
C2645      H2649   1.083       .  S
C2646      O2650   1.371       .  S
O2648      H2652   0.992       .  S
O2650      H2651   0.992       .  S
C2653      C2654   1.402   1_556  A
C2654      H2659   1.084   1_554  S
C2655      C2656   1.410       .  A
C2655      O2660   1.372       .  S
C2657      H2661   1.084       .  S
C2658      O2662   1.372       .  S
O2660      H2664   0.992       .  S
O2662      H2663   0.992       .  S
C2665      C2666   1.404       .  A
C2665      C2670   1.406       .  A
C2666      H2671   1.084       .  S
C2667      C2668   1.407       .  A
C2667      O2672   1.372       .  S
C2668      C2669   1.406       .  A
C2669      H2673   1.084       .  S
C2670      O2674   1.372       .  S
O2672      H2676   0.992       .  S
O2674      H2675   0.992       .  S
C2677      C2678   1.407       .  A
C2677      C2682   1.406       .  A
C2678      C2679   1.398       .  A
C2678      H2683   1.084       .  S
C2679      C2680   1.409       .  A
C2679      O2684   1.372       .  S
C2680      C2681   1.409       .  A
C2681      C2682   1.401       .  A
C2681      H2685   1.084       .  S
C2682      O2686   1.372       .  S
O2684      H2688   0.992       .  S
O2686      H2687   0.992       .  S
C2689      C2690   1.403       .  A
C2689      C2694   1.406       .  A
C2690      C2691   1.398       .  A
C2690      H2695   1.083       .  S
C2691      C2692   1.407       .  A
C2691      O2696   1.372       .  S
C2692      C2693   1.400       .  A
C2693      C2694   1.396       .  A
C2693      H2697   1.081       .  S
C2694      O2698   1.372       .  S
O2696      H2700   0.992       .  S
O2698      H2699   0.992       .  S
C2701      C2702   1.404       .  A
C2701      C2706   1.415       .  A
C2702      C2703   1.405       .  A
C2702      H2707   1.083       .  S
C2704      C2705   1.402       .  A
C2705      H2709   1.084       .  S
C2706      O2710   1.372       .  S
O2710      H2711   0.992       .  S
C2713      C2714   1.400       .  A
C2714      C2715   1.398       .  A
C2714      H2719   1.084       .  S
C2715      C2716   1.416       .  A
C2715      O2720   1.373       .  S
C2717      C2718   1.395       .  A
C2717      H2721   1.083       .  S
C2718      O2722   1.371       .  S
O2720      H2724   0.992       .  S
O2722      H2723   0.992       .  S
C2725      C2730   1.419       .  A
C2726      H2731   1.083       .  S
C2727      O2732   1.372       .  S
C2728      C2729   1.403   1_455  A
C2729      H2733   1.083       .  S
C2730      O2734   1.371       .  S
O2732      H2736   0.992       .  S
O2734      H2735   0.992       .  S
C2737      C2738   1.397       .  A
C2737      C2742   1.416       .  A
C2738      C2739   1.395       .  A
C2738      H2743   1.084       .  S
C2739      C2740   1.416       .  A
C2739      O2744   1.371       .  S
C2740      C2741   1.399       .  A
C2741      C2742   1.405       .  A
C2741      H2745   1.078       .  S
C2742      O2746   1.372       .  S
O2744      H2748   0.991       .  S
O2746      H2747   0.992   1_655  S
C2749      C2750   1.410       .  A
C2749      C2754   1.402       .  A
C2750      C2751   1.408       .  A
C2750      H2755   1.084       .  S
C2751      C2752   1.407       .  A
C2751      O2756   1.371       .  S
C2752      C2753   1.409       .  A
C2753      C2754   1.396       .  A
C2754      O2758   1.372       .  S
O2756      H2760   0.992       .  S
O2758      H2759   0.992       .  S
C2761      C2762   1.405       .  A
C2761      C2766   1.409       .  A
C2762      C2763   1.403       .  A
C2763      C2764   1.408       .  A
C2763      O2768   1.370       .  S
C2764      C2765   1.403       .  A
C2765      C2766   1.397       .  A
C2765      H2769   1.084       .  S
C2766      O2770   1.372       .  S
O2770      H2771   0.992       .  S
C2773      C2774   1.402       .  A
C2773      C2778   1.409       .  A
C2774      C2775   1.398       .  A
C2774      H2779   1.084       .  S
C2775      C2776   1.406       .  A
C2775      O2780   1.370       .  S
C2776      C2777   1.401       .  A
C2777      C2778   1.398       .  A
C2777      H2781   1.084       .  S
C2778      O2782   1.373       .  S
O2780      H2784   0.992       .  S
O2782      H2783   0.991       .  S
