geometry optimzed in LAMMPS
_audit_creation_date              2020-12-01 
_audit_creation_method            'lammps2cif' 
_symmetry_space_group_name_H-M    'P1' 
_symmetry_Int_Tables_number       1 
_symmetry_cell_setting            triclinic 
loop_ 
_symmetry_equiv_pos_as_xyz 
  x,y,z 
_cell_length_a                    36.19941633 
_cell_length_b                    35.809480200392386 
_cell_length_c                    35.808020090065455 
_cell_angle_alpha                 89.60500924359667 
_cell_angle_beta                  90.11691271926863 
_cell_angle_gamma                 89.96430204888895 
loop_ 
_atom_site_label 
_atom_site_type_symbol 
_atom_site_fract_x 
_atom_site_fract_y 
_atom_site_fract_z 
_atom_site_charge 
Fe1        Fe  0.16476902  0.01023513  0.44425879     1.65800
Fe2        Fe  0.22074458  0.07404888  0.40215694     1.73200
Fe3        Fe  0.25289435  0.02100568  0.47595895     1.54400
O4          O  0.21966389  0.03245704  0.52268027    -0.82500
O5          O  0.26558275  0.04402128  0.38308339    -0.80800
O6          O  0.16316402  0.01864502  0.50095954    -0.85000
O7          O  0.18535742  0.95657389  0.45226421    -0.79900
O8          O  0.27688367  0.07298855  0.48013643    -0.81600
O9          O  0.18798720  0.04814420  0.36188048    -0.84400
C10         C  0.21290241  0.94431690  0.47055253     0.96400
C11         C  0.18491664  0.02759620  0.52734851     1.03800
O12         O  0.21286321  0.03536854  0.44100580    -1.13400
O13         O  0.17476006  0.10566768  0.41858189    -0.75800
O14         O  0.13667736  0.06020092  0.43723901    -0.79300
O15         O  0.23906654  0.96543008  0.48010966    -0.80000
C16         C  0.14269315  0.09403562  0.42800691     0.95300
O17         O  0.16065711  0.99916706  0.38767933    -0.77900
O18         O  0.25618107  0.10792620  0.43344997    -0.83100
C19         C  0.28774473  0.01974136  0.39674089     0.97900
C20         C  0.27744559  0.10293750  0.46131839     1.03800
O21         O  0.28675726  0.00836125  0.43068200    -0.78800
C22         C  0.16728921  0.01967044  0.35943842     1.02100
Fe23       Fe  0.97138897  0.98296180  0.31650356     1.65800
Fe24       Fe  0.92962449  0.91328164  0.26756714     1.73200
Fe25       Fe  0.97537287  0.98434236  0.22127687     1.54400
O26         O  0.95629425  0.03696860  0.23636885    -0.82500
O27         O  0.95930372  0.89087911  0.22350370    -0.80800
O28         O  0.95700439  0.03574878  0.29861944    -0.85000
O29         O  0.02620688  0.99018051  0.30196302    -0.79900
O30         O  0.92394121  0.97632673  0.19594014    -0.81600
O31         O  0.96638466  0.88653667  0.30512515    -0.84400
C32         C  0.04466881  0.99485920  0.27221937     0.96400
C33         C  0.95101621  0.05227426  0.26776245     1.03800
O34         O  0.95866275  0.96022388  0.26839449    -1.13400
O35         O  0.89414371  0.92797737  0.31124296    -0.75800
O36         O  0.91919849  0.97752544  0.33794177    -0.79300
O37         O  0.02947274  0.99529387  0.24012858    -0.80000
C38         C  0.89329580  0.95391413  0.33526524     0.95300
O39         O  0.98584965  0.93311418  0.34060911    -0.77900
O40         O  0.89093531  0.93586841  0.22996156    -0.83100
C41         C  0.98462474  0.90138882  0.20128751     0.97900
C42         C  0.89395414  0.95883670  0.20267990     1.03800
O43         O  0.99589526  0.93485940  0.20038734    -0.78800
C44         C  0.98447941  0.89860610  0.33323124     1.02100
Fe45       Fe  0.92300989  0.15840124  0.43704669     1.65800
Fe46       Fe  0.87888339  0.23268768  0.39799379     1.73200
Fe47       Fe  0.95498170  0.24475272  0.45393523     1.54400
O48         O  0.96039812  0.21121295  0.50202362    -0.82500
O49         O  0.91370654  0.26673785  0.36739194    -0.80800
O50         O  0.92192978  0.16372226  0.49418576    -0.85000
O51         O  0.97964246  0.15832803  0.43764156    -0.79900
O52         O  0.91100049  0.27413843  0.47936526    -0.81600
O53         O  0.88517015  0.19254399  0.35663984    -0.84400
C54         C  0.00596036  0.18067659  0.43148682     0.96400
C55         C  0.94541576  0.18117473  0.51371659     1.03800
O56         O  0.91917814  0.21213720  0.42920242    -1.13400
O57         O  0.83917391  0.20227866  0.42688172    -0.75800
O58         O  0.86750005  0.14860718  0.43875743    -0.79300
O59         O  0.00079061  0.21606511  0.43107604    -0.80000
C60         C  0.83948829  0.16945056  0.44016786     0.95300
O61         O  0.92451827  0.15049054  0.38048757    -0.77900
O62         O  0.86825492  0.27535816  0.43459177    -0.83100
C63         C  0.94122744  0.28642549  0.37696872     0.97900
C64         C  0.87958648  0.28492832  0.46665969     1.03800
O65         O  0.95682518  0.28220766  0.40870928    -0.78800
C66         C  0.90694684  0.16492931  0.35325073     1.02100
Fe67       Fe  0.00303099  0.02621445  0.66841011     1.65800
Fe68       Fe  0.05213474  0.08988407  0.71533787     1.73200
Fe69       Fe  0.00648211  0.02027627  0.76249862     1.54400
O70         O  0.95027999  0.02015813  0.74939058    -0.82500
O71         O  0.08360760  0.07241473  0.76198043    -0.80800
O72         O  0.95166445  0.01140267  0.68802831    -0.85000
O73         O  0.02351587  0.97442726  0.67962005    -0.79900
O74         O  0.99863796  0.07140438  0.78901925    -0.81600
O75         O  0.09116194  0.06502237  0.68123514    -0.84400
C76         C  0.02393617  0.95430766  0.70883232     0.96400
C77         C  0.93425662  0.01373979  0.71854817     1.03800
O78         O  0.02091420  0.04502394  0.71569611    -1.13400
O79         O  0.02702507  0.11421514  0.66718895    -0.75800
O80         O  0.98017239  0.07664400  0.65519043    -0.79300
O81         O  0.01440753  0.96628038  0.74091008    -0.80000
C82         C  0.99830718  0.10587551  0.64824367     0.95300
O83         O  0.05261581  0.03838130  0.64104191    -0.77900
O84         O  0.01443750  0.11671420  0.74930245    -0.83100
C85         C  0.08512337  0.04282997  0.78201537     0.97900
C86         C  0.99951304  0.10584553  0.77963403     1.03800
O87         O  0.06016890  0.01803151  0.78118250    -0.78800
C88         C  0.08491137  0.04903617  0.65026481     1.02100
Fe89       Fe  0.82232457  0.98969323  0.54637328     1.65800
Fe90       Fe  0.76486821  0.92657790  0.58888203     1.73200
Fe91       Fe  0.73368248  0.98204651  0.51699413     1.54400
O92         O  0.74949692  0.03652037  0.51098588    -0.82500
O93         O  0.73320537  0.89240640  0.55455183    -0.80800
O94         O  0.80355346  0.04428473  0.53795222    -0.85000
O95         O  0.82303442  0.98048850  0.48947314    -0.79900
O96         O  0.70215381  0.99695841  0.56291117    -0.81600
O97         O  0.81116349  0.89526903  0.57448988    -0.84400
C98         C  0.80014709  0.97109678  0.46416056     0.96400
C99         C  0.77621588  0.05709527  0.51965957     1.03800
O100        O  0.77370012  0.96593995  0.55073662    -1.13400
O101        O  0.79539867  0.95374758  0.63009595    -0.75800
O102        O  0.82631562  0.00024598  0.60302116    -0.79300
O103        O  0.76536405  0.96776103  0.46997080    -0.80000
C104        C  0.81696582  0.98169036  0.63191965     0.95300
O105        O  0.84928959  0.93937916  0.55328577    -0.77900
O106        O  0.71814814  0.95484193  0.60689595    -0.83100
C107        C  0.70998414  0.89976828  0.52899643     0.97900
C108        C  0.69872035  0.98240594  0.59541063     1.03800
O109        O  0.70726381  0.93187512  0.51480159    -0.78800
C110        C  0.84279369  0.90594921  0.56336901     1.02100
Fe111      Fe  0.06139379  0.84310051  0.53926559     1.65800
Fe112      Fe  0.10216279  0.76985939  0.58301759     1.73200
Fe113      Fe  0.02832247  0.75661320  0.52451544     1.54400
O114        O  0.98352451  0.78734223  0.54574351    -0.82500
O115        O  0.11256245  0.72516863  0.54849899    -0.80800
O116        O  0.00480580  0.84470984  0.53675860    -0.85000
O117        O  0.06366070  0.83616447  0.48278790    -0.79900
O118        O  0.02423653  0.72046955  0.57045209    -0.81600
O119        O  0.14464336  0.79731622  0.55495318    -0.84400
C120        C  0.04244077  0.81759712  0.46206683     0.96400
C121        C  0.97873863  0.82267886  0.54480954     1.03800
O122        O  0.06414432  0.78960780  0.54887069    -1.13400
O123        O  0.09568672  0.81202852  0.62254096    -0.75800
O124        O  0.05793990  0.85321605  0.59525845    -0.79300
O125        O  0.02632252  0.78842793  0.47479021    -0.80000
C126        C  0.07384850  0.83979147  0.62389329     0.95300
O127        O  0.11743415  0.85073442  0.53890376    -0.77900
O128        O  0.06375881  0.73996660  0.61358201    -0.83100
C129        C  0.10065423  0.71206719  0.51781051     0.97900
C130        C  0.03716070  0.71928508  0.60354977     1.03800
O131        O  0.07079473  0.72356710  0.50241027    -0.78800
C132        C  0.14549491  0.82979488  0.54064562     1.02100
Fe133      Fe  0.46360845  0.16838425  0.04363314     1.65800
Fe134      Fe  0.39587821  0.22709148  0.07009713     1.73200
Fe135      Fe  0.47078920  0.26037576  0.02170472     1.54400
O136        O  0.52117816  0.24730923  0.04667619    -0.82500
O137        O  0.37961424  0.26978977  0.03430664    -0.80800
O138        O  0.51751375  0.18554437  0.05401207    -0.85000
O139        O  0.47251335  0.17077991  0.98789371    -0.79900
O140        O  0.45929595  0.29502664  0.06718815    -0.81600
O141        O  0.36955895  0.18959533  0.03496390    -0.84400
C142        C  0.48602311  0.19525836  0.96644282     0.96400
C143        C  0.53583877  0.21584743  0.05396457     1.03800
O144        O  0.44370003  0.21875818  0.04514285    -1.13400
O145        O  0.40312776  0.18548401  0.11098001    -0.75800
O146        O  0.45776542  0.16038460  0.09934603    -0.79300
O147        O  0.48702841  0.22984425  0.97458965    -0.80000
C148        C  0.42979757  0.16409046  0.11986728     0.95300
O149        O  0.41217553  0.14479831  0.03175787    -0.77900
O150        O  0.41999763  0.26536841  0.10558666    -0.83100
C151        C  0.39173941  0.28420423  0.00429486     0.97900
C152        C  0.44276893  0.29161229  0.09857735     1.03800
O153        O  0.42429807  0.27821211  0.99275077    -0.78800
C154        C  0.37974901  0.15713469  0.02505846     1.02100
Fe155      Fe  0.31725216  0.95181578  0.95541017     1.65800
Fe156      Fe  0.25513166  0.92455719  0.89215402     1.73200
Fe157      Fe  0.23209884  0.98266230  0.96552737     1.54400
O158        O  0.26038366  0.97591815  0.01829112    -0.82500
O159        O  0.22373185  0.96732793  0.86951007    -0.80800
O160        O  0.29526433  0.92948593  0.00240989    -0.85000
O161        O  0.31543965  0.00741099  0.97310541    -0.79900
O162        O  0.20200368  0.93437851  0.97375671    -0.81600
O163        O  0.30236724  0.94471423  0.86280909    -0.84400
C164        C  0.29449713  0.03554327  0.96793460     0.96400
C165        C  0.28525356  0.95201674  0.02670230     1.03800
O166        O  0.26811433  0.95402633  0.93597027    -1.13400
O167        O  0.28311875  0.87572513  0.90774401    -0.75800
O168        O  0.32878266  0.89799726  0.94175506    -0.79300
O169        O  0.26102332  0.03189613  0.95792063    -0.80000
C170        C  0.31289772  0.87125534  0.92579013     0.95300
O171        O  0.33865163  0.97055639  0.90679144    -0.77900
O172        O  0.20909037  0.90247370  0.92022037    -0.83100
C173        C  0.20062369  0.99002200  0.88345760     0.97900
C174        C  0.19446380  0.90688709  0.95249970     1.03800
O175        O  0.19998239  0.99605919  0.91841876    -0.78800
C176        C  0.33162837  0.96230450  0.87313060     1.02100
Fe177      Fe  0.46262053  0.96153591  0.16956783     1.65800
Fe178      Fe  0.41422452  0.90860232  0.22860833     1.73200
Fe179      Fe  0.47097137  0.97774770  0.26007805     1.54400
O180        O  0.51940586  0.99377198  0.23069810    -0.82500
O181        O  0.38179224  0.94388320  0.26089422    -0.80800
O182        O  0.51599158  0.95396649  0.18546487    -0.85000
O183        O  0.46207959  0.01812923  0.18050304    -0.79900
O184        O  0.49437772  0.92914901  0.28058602    -0.81600
O185        O  0.38076372  0.92094513  0.18162850    -0.84400
C186        C  0.44924309  0.03754597  0.20702052     0.96400
C187        C  0.53228948  0.98069921  0.20056157     1.03800
O188        O  0.44838064  0.94932685  0.21938990    -1.13400
O189        O  0.44459451  0.87029410  0.19696492    -0.75800
O190        O  0.46472389  0.90743865  0.15158371    -0.79300
O191        O  0.44668631  0.02553801  0.24024803    -0.80000
C192        C  0.46092719  0.87530110  0.16588430     0.95300
O193        O  0.40930629  0.96811116  0.15276545    -0.77900
O194        O  0.44495451  0.89145018  0.27526668    -0.83100
C195        C  0.39211360  0.96327894  0.28872844     0.97900
C196        C  0.47696829  0.89906568  0.28840889     1.03800
O197        O  0.42589519  0.97049411  0.29506956    -0.78800
C198        C  0.38255219  0.94557351  0.15567767     1.02100
Fe199      Fe  0.66461323  0.05913807  0.02491490     1.65800
Fe200      Fe  0.72390132  0.08010110  0.09377457     1.73200
Fe201      Fe  0.75241910  0.02543835  0.02079804     1.54400
O202        O  0.71730798  0.97936780  0.01094123    -0.82500
O203        O  0.76528039  0.11079569  0.06823524    -0.80800
O204        O  0.66039619  0.00210629  0.01940820    -0.85000
O205        O  0.68191239  0.06364732  0.97036568    -0.79900
O206        O  0.77091269  0.99936201  0.06964044    -0.81600
O207        O  0.68576754  0.12399874  0.08426286    -0.84400
C208        C  0.71099470  0.05704035  0.95199529     0.96400
C209        C  0.68212979  0.97562397  0.01087962     1.03800
O210        O  0.71396158  0.05462779  0.04620326    -1.13400
O211        O  0.68298239  0.04902143  0.12038370    -0.75800
O212        O  0.63960778  0.05546193  0.07688189    -0.79300
O213        O  0.74056182  0.04557504  0.96733176    -0.80000
C214        C  0.64963593  0.04558382  0.10952144     0.95300
O215        O  0.66421645  0.11627428  0.02726741    -0.77900
O216        O  0.76342253  0.04204716  0.11328716    -0.83100
C217        C  0.78934509  0.10187437  0.04379316     0.97900
C218        C  0.77758530  0.01166133  0.10211271     1.03800
O219        O  0.78941432  0.07023415  0.02716651    -0.78800
C220        C  0.66633090  0.13536681  0.05672495     1.02100
Fe221      Fe  0.51042931  0.83134047  0.95899202     1.65800
Fe222      Fe  0.57663137  0.77258533  0.92575248     1.73200
Fe223      Fe  0.50259997  0.73784683  0.97570253     1.54400
O224        O  0.50269741  0.76108907  0.02874314    -0.82500
O225        O  0.55337941  0.72844195  0.89624228    -0.80800
O226        O  0.49969206  0.82222085  0.01554768    -0.85000
O227        O  0.45735098  0.81680845  0.94365613    -0.79900
O228        O  0.55003522  0.70724823  0.98954759    -0.81600
O229        O  0.56188238  0.80691614  0.88183325    -0.84400
C230        C  0.43686338  0.78903333  0.95072206     0.96400
C231        C  0.49952869  0.79497119  0.03876546     1.03800
O232        O  0.53014681  0.78063622  0.95367510    -1.13400
O233        O  0.60522204  0.81685398  0.95107428    -0.75800
O234        O  0.56097564  0.85354421  0.97387779    -0.79300
O235        O  0.44950365  0.75909925  0.96506316    -0.80000
C236        C  0.59475564  0.84665915  0.96722295     0.95300
O237        O  0.51951116  0.84621209  0.90340992    -0.77900
O238        O  0.59858160  0.73648921  0.96504810    -0.83100
C239        C  0.52367486  0.70941707  0.89800854     0.97900
C240        C  0.58460455  0.70997477  0.98387209     1.03800
O241        O  0.50054987  0.71212856  0.92454852    -0.78800
C242        C  0.54072317  0.83476077  0.87759524     1.02100
Fe243      Fe  0.54682392  0.02826099  0.82754603     1.65800
Fe244      Fe  0.57572169  0.09433892  0.76618499     1.73200
Fe245      Fe  0.51648197  0.02427069  0.73773682     1.54400
O246        O  0.52700575  0.97029046  0.75694967    -0.82500
O247        O  0.53406578  0.11856404  0.73553587    -0.80800
O248        O  0.55989999  0.97549326  0.80919619    -0.85000
O249        O  0.49163995  0.01617902  0.82600703    -0.79900
O250        O  0.56242724  0.02070593  0.70402250    -0.81600
O251        O  0.55557359  0.12330220  0.81194474    -0.84400
C252        C  0.46462654  0.01547889  0.80359854     0.96400
C253        C  0.54489806  0.95590877  0.78394968     1.03800
O254        O  0.54635770  0.04912078  0.77709740    -1.13400
O255        O  0.62244060  0.07847956  0.79650993    -0.75800
O256        O  0.60203234  0.03713972  0.83785315    -0.79300
O257        O  0.46804903  0.02423162  0.76921806    -0.80000
C258        C  0.62745611  0.05758473  0.82481460     0.95300
O259        O  0.53366613  0.07895532  0.85021103    -0.77900
O260        O  0.59864665  0.06908999  0.71949235    -0.83100
C261        C  0.50899659  0.10783317  0.71356586     0.97900
C262        C  0.59148796  0.04027430  0.69999821     1.03800
O263        O  0.50037522  0.07359702  0.71111878    -0.78800
C264        C  0.54006852  0.11292188  0.84210054     1.02100
Fe265      Fe  0.04207422  0.46343823  0.15633988     1.65800
Fe266      Fe  0.07590274  0.40640243  0.22440263     1.73200
Fe267      Fe  0.01498947  0.47624324  0.24679694     1.54400
O268        O  0.03424137  0.52800557  0.22918384    -0.82500
O269        O  0.03878684  0.38733943  0.26462400    -0.80800
O270        O  0.04755764  0.51970108  0.16873209    -0.85000
O271        O  0.98561745  0.46871215  0.15563316    -0.79900
O272        O  0.05750435  0.47419474  0.28606067    -0.81600
O273        O  0.05015253  0.37057127  0.18675921    -0.84400
C274        C  0.96190951  0.48115416  0.17827857     0.96400
C275        C  0.04330434  0.54045520  0.19717120     1.03800
O276        O  0.04422152  0.44880987  0.20909029    -1.13400
O277        O  0.11884991  0.41739841  0.18680054    -0.75800
O278        O  0.09846509  0.46130106  0.14819998    -0.79300
O279        O  0.96849804  0.48419338  0.21300301    -0.80000
C280        C  0.12398892  0.44002623  0.15985934     0.95300
O281        O  0.03463306  0.40846815  0.13930502    -0.77900
O282        O  0.10314807  0.43968186  0.26291216    -0.83100
C283        C  0.00695458  0.39652320  0.27635105     0.97900
C284        C  0.09080089  0.46279992  0.28672083     1.03800
O285        O  0.99193752  0.42760280  0.26817529    -0.78800
C286        C  0.03602299  0.37621600  0.15458150     1.02100
Fe287      Fe  0.96369688  0.32787823  0.96642975     1.65800
Fe288      Fe  0.90205556  0.27056232  0.92538552     1.73200
Fe289      Fe  0.97650953  0.23449616  0.97329840     1.54400
O290        O  0.02591505  0.25468217  0.95097326    -0.82500
O291        O  0.88453990  0.22580042  0.95815088    -0.80800
O292        O  0.01919885  0.31540733  0.96169795    -0.85000
O293        O  0.96415032  0.31585489  0.02275477    -0.79900
O294        O  0.96898626  0.20462563  0.92402139    -0.81600
O295        O  0.87068910  0.30503337  0.95942824    -0.84400
C296        C  0.97865635  0.28909406  0.04112645     0.96400
C297        C  0.03891660  0.28755995  0.95283796     1.03800
O298        O  0.94749052  0.27743677  0.95477052    -1.13400
O299        O  0.91426847  0.31470596  0.88872713    -0.75800
O300        O  0.96368139  0.34365247  0.91155940    -0.79300
O301        O  0.98809667  0.25864678  0.02553103    -0.80000
C302        C  0.93990441  0.33896880  0.88597270     0.95300
O303        O  0.91119093  0.34918573  0.97190579    -0.77900
O304        O  0.92808636  0.23543300  0.88853699    -0.83100
C305        C  0.89697794  0.20752114  0.98610980     0.97900
C306        C  0.95173480  0.20971672  0.89336395     1.03800
O307        O  0.93020383  0.21036820  0.99727276    -0.78800
C308        C  0.87842406  0.33703442  0.97217363     1.02100
Fe309      Fe  0.16797333  0.45116336  0.96280364     1.65800
Fe310      Fe  0.22563808  0.42122171  0.89495932     1.73200
Fe311      Fe  0.25909111  0.47370454  0.96922667     1.54400
O312        O  0.23113551  0.52450115  0.97760919    -0.82500
O313        O  0.26684423  0.38922120  0.92001007    -0.80800
O314        O  0.17273182  0.50597058  0.97495346    -0.85000
O315        O  0.18436844  0.43671847  0.01648207    -0.79900
O316        O  0.28372565  0.49502230  0.92087344    -0.81600
O317        O  0.18880561  0.37733425  0.90595134    -0.84400
C318        C  0.21259874  0.44411392  0.03620583     0.96400
C319        C  0.19668765  0.53042462  0.98218024     1.03800
O320        O  0.21777393  0.44886653  0.94227656    -1.13400
O321        O  0.18532740  0.45267553  0.86664009    -0.75800
O322        O  0.14571609  0.46682322  0.91198185    -0.79300
O323        O  0.24216611  0.45714012  0.02233897    -0.80000
C324        C  0.15574443  0.46824860  0.87800072     0.95300
O325        O  0.15634609  0.39667280  0.95421113    -0.77900
O326        O  0.26445702  0.45815462  0.87507032    -0.83100
C327        C  0.28946910  0.39487111  0.94677763     0.97900
C328        C  0.28495637  0.48398913  0.88724746     1.03800
O329        O  0.28989860  0.42489113  0.96577562    -0.78800
C330        C  0.16482804  0.37174758  0.93110640     1.02100
Fe331      Fe  0.03108608  0.66979320  0.02406510     1.65800
Fe332      Fe  0.08728009  0.73142876  0.06703183     1.73200
Fe333      Fe  0.01322619  0.76223883  0.01563312     1.54400
O334        O  0.01638049  0.74400751  0.96116871    -0.82500
O335        O  0.06266379  0.77746951  0.09232475    -0.80800
O336        O  0.01826637  0.68203444  0.96876862    -0.85000
O337        O  0.97710675  0.67571444  0.03939410    -0.79900
O338        O  0.05958093  0.79628009  0.00609319    -0.81600
O339        O  0.06801759  0.69871847  0.11046905    -0.84400
C340        C  0.95356982  0.70082878  0.03237283     0.96400
C341        C  0.01387608  0.71109335  0.94854624     1.03800
O342        O  0.04378146  0.72113521  0.03546655    -1.13400
O343        O  0.11902677  0.68602033  0.04840047    -0.75800
O344        O  0.08368446  0.65672385  0.00724620    -0.79300
O345        O  0.96268731  0.73372913  0.02216516    -0.80000
C346        C  0.11386530  0.66024253  0.02470679     0.95300
O347        O  0.04102733  0.65283134  0.07857549    -0.77900
O348        O  0.10939103  0.76485706  0.02578568    -0.83100
C349        C  0.03051847  0.79183140  0.09224295     0.97900
C350        C  0.09456543  0.79248496  0.00902694     1.03800
O351        O  0.00629914  0.78419534  0.06791001    -0.78800
C352        C  0.05300407  0.66675232  0.10887846     1.02100
Fe353      Fe  0.95232191  0.54481423  0.83131586     1.65800
Fe354      Fe  0.91017174  0.59865964  0.76544815     1.73200
Fe355      Fe  0.97276275  0.53051781  0.73988694     1.54400
O356        O  0.02385942  0.53525397  0.76676558    -0.82500
O357        O  0.88645512  0.56807911  0.72259107    -0.80800
O358        O  0.00747202  0.53214274  0.82612131    -0.85000
O359        O  0.93872475  0.48993741  0.82165474    -0.79900
O360        O  0.98543672  0.57865007  0.70957943    -0.81600
O361        O  0.86778548  0.57920334  0.80009349    -0.84400
C362        C  0.94851843  0.46766103  0.79603831     0.96400
C363        C  0.03202310  0.53132622  0.80107473     1.03800
O364        O  0.94498455  0.55798425  0.77859831    -1.13400
O365        O  0.93130794  0.63434308  0.80640073    -0.75800
O366        O  0.96716824  0.59895910  0.84331743    -0.79300
O367        O  0.96323678  0.47859399  0.76552372    -0.80000
C368        C  0.95530231  0.63059907  0.83228676     0.95300
O369        O  0.89834186  0.55375163  0.84739620    -0.77900
O370        O  0.94686217  0.62316441  0.72874871    -0.83100
C371        C  0.89533215  0.53948007  0.70366400     0.97900
C372        C  0.97327380  0.61199147  0.70843054     1.03800
O373        O  0.92574722  0.52223799  0.70801548    -0.78800
C374        C  0.86839451  0.56387392  0.83214972     1.02100
Fe375      Fe  0.81411385  0.53600323  0.02108832     1.65800
Fe376      Fe  0.75680342  0.57792812  0.08297561     1.73200
Fe377      Fe  0.72341137  0.51518428  0.01722160     1.54400
O378        O  0.74282984  0.52476162  0.96210594    -0.82500
O379        O  0.72080793  0.54178868  0.11066048    -0.80800
O380        O  0.79820204  0.55108486  0.96887297    -0.85000
O381        O  0.80784475  0.48057191  0.01008487    -0.79900
O382        O  0.69135787  0.56322146  0.01298255    -0.81600
O383        O  0.80267093  0.55584287  0.11351268    -0.84400
C384        C  0.78381149  0.45540336  0.01441499     0.96400
C385        C  0.77146446  0.54091219  0.94876089     1.03800
O386        O  0.76445926  0.54305023  0.04080248    -1.13400
O387        O  0.79036887  0.62109442  0.06174566    -0.75800
O388        O  0.83046719  0.58924098  0.02848792    -0.79300
O389        O  0.75008625  0.46313440  0.02025760    -0.80000
C390        C  0.81981781  0.61939353  0.04263849     0.95300
O391        O  0.83419696  0.52177951  0.07208413    -0.77900
O392        O  0.71151587  0.60312470  0.05626362    -0.83100
C393        C  0.69912448  0.51559554  0.10109927     0.97900
C394        C  0.68918747  0.59425811  0.03006913     1.03800
O395        O  0.69913182  0.50255555  0.06814663    -0.78800
C396        C  0.82987418  0.53466652  0.10460591     1.02100
Fe397      Fe  0.50537722  0.46692716  0.32402017     1.65800
Fe398      Fe  0.55838209  0.41149387  0.26912273     1.73200
Fe399      Fe  0.50604952  0.48222351  0.23000420     1.54400
O400        O  0.45159010  0.48703040  0.24679285    -0.82500
O401        O  0.59009851  0.43645658  0.22769192    -0.80800
O402        O  0.45138961  0.47512940  0.30770271    -0.85000
O403        O  0.51757672  0.52195737  0.31514090    -0.79900
O404        O  0.49160077  0.43318064  0.20345436    -0.81600
O405        O  0.59532971  0.43427614  0.30734932    -0.84400
C406        C  0.52206734  0.54367001  0.28743474     0.96400
C407        C  0.43495875  0.48396420  0.27767459     1.03800
O408        O  0.52314780  0.45351220  0.27421742    -1.13400
O409        O  0.53416130  0.37869306  0.31173320    -0.75800
O410        O  0.49088712  0.41350193  0.33848638    -0.79300
O411        O  0.51912167  0.53331821  0.25367322    -0.80000
C412        C  0.50839057  0.38316146  0.33551135     0.95300
O413        O  0.55732810  0.46109132  0.34768430    -0.77900
O414        O  0.52437671  0.38688376  0.22911174    -0.83100
C415        C  0.58631284  0.46425276  0.20598422     0.97900
C416        C  0.50024517  0.39880814  0.20573855     1.03800
O417        O  0.55714985  0.48364946  0.20501026    -0.78800
C418        C  0.58963117  0.45129305  0.33782077     1.02100
Fe419      Fe  0.54677173  0.66491246  0.45468907     1.65800
Fe420      Fe  0.59667347  0.73206539  0.41068703     1.73200
Fe421      Fe  0.52630028  0.75591120  0.47162054     1.54400
O422        O  0.47600130  0.72733807  0.46312496    -0.82500
O423        O  0.61925083  0.76774891  0.44885108    -0.80800
O424        O  0.49150047  0.67042446  0.44335093    -0.85000
O425        O  0.53671658  0.67124926  0.51050457    -0.79900
O426        O  0.51663526  0.78496050  0.42262529    -0.81600
O427        O  0.63377089  0.69163987  0.43045160    -0.84400
C428        C  0.53278421  0.69714826  0.53403734     0.96400
C429        C  0.46748819  0.69492430  0.45124305     1.03800
O430        O  0.55646832  0.71786406  0.44564161    -1.13400
O431        O  0.57779237  0.69829530  0.36794134    -0.75800
O432        O  0.55413693  0.65048980  0.39976017    -0.79300
O433        O  0.53207508  0.73136198  0.52441289    -0.80000
C434        C  0.56262877  0.66649403  0.36928962     0.95300
O435        O  0.60099947  0.65458954  0.46802857    -0.77900
O436        O  0.56589282  0.77464886  0.38660632    -0.83100
C437        C  0.60616257  0.78990303  0.47289713     0.97900
C438        C  0.53551108  0.79098421  0.39336390     1.03800
O439        O  0.57239611  0.78933656  0.48304914    -0.78800
C440        C  0.63150037  0.66567148  0.45473025     1.02100
Fe441      Fe  0.32289866  0.51972828  0.43838101     1.65800
Fe442      Fe  0.26208176  0.58080982  0.39811827     1.73200
Fe443      Fe  0.23473117  0.52321564  0.47037881     1.54400
O444        O  0.25246793  0.46878542  0.47321011    -0.82500
O445        O  0.22934821  0.61293856  0.43315968    -0.80800
O446        O  0.30601920  0.46448866  0.44429867    -0.85000
O447        O  0.32429349  0.52515757  0.49514635    -0.79900
O448        O  0.20119462  0.50941492  0.42541504    -0.81600
O449        O  0.30686097  0.61403678  0.41448966    -0.84400
C450        C  0.30237008  0.53136134  0.52202328     0.96400
C451        C  0.27990316  0.44983502  0.46291452     1.03800
O452        O  0.27318432  0.54136581  0.43567877    -1.13400
O453        O  0.29287648  0.55631466  0.35542118    -0.75800
O454        O  0.32632813  0.51142031  0.38211295    -0.79300
O455        O  0.26746359  0.53530712  0.51752975    -0.80000
C456        C  0.31532215  0.52913921  0.35348542     0.95300
O457        O  0.34781865  0.57184984  0.43422584    -0.77900
O458        O  0.21647684  0.55014274  0.37980695    -0.83100
C459        C  0.20800946  0.60544076  0.46013586     0.97900
C460        C  0.19707405  0.52307318  0.39262550     1.03800
O461        O  0.20780609  0.57339747  0.47499254    -0.78800
C462        C  0.33862218  0.60553655  0.42744475     1.02100
Fe463      Fe  0.48105805  0.52455279  0.66995982     1.65800
Fe464      Fe  0.42938171  0.58554786  0.72079306     1.73200
Fe465      Fe  0.48111834  0.51741955  0.76493208     1.54400
O466        O  0.46354382  0.46557878  0.74580420    -0.82500
O467        O  0.45759649  0.60909507  0.76535554    -0.80800
O468        O  0.46838033  0.47013899  0.68368180    -0.85000
O469        O  0.53537333  0.51930920  0.68682434    -0.79900
O470        O  0.43065067  0.52188224  0.79112732    -0.81600
O471        O  0.46199280  0.61816728  0.68435473    -0.84400
C472        C  0.55208619  0.51152353  0.71697673     0.96400
C473        C  0.45939087  0.45246287  0.71314602     1.03800
O474        O  0.46389758  0.54267992  0.71856777    -1.13400
O475        O  0.39584690  0.56743768  0.67687362    -0.75800
O476        O  0.43026558  0.52820680  0.64506665    -0.79300
O477        O  0.53530376  0.50825951  0.74779542    -0.80000
C478        C  0.40020251  0.54542849  0.64955648     0.95300
O479        O  0.49311342  0.57684588  0.65084532    -0.77900
O480        O  0.39321595  0.55784784  0.75719931    -0.83100
C481        C  0.48393670  0.59984148  0.78714647     0.97900
C482        C  0.39897486  0.53539930  0.78433937     1.03800
O483        O  0.49837049  0.56743070  0.78741909    -0.78800
C484        C  0.48469486  0.61025971  0.65831344     1.02100
Fe485      Fe  0.43312111  0.34026306  0.54519499     1.65800
Fe486      Fe  0.38213879  0.26976980  0.58440104     1.73200
Fe487      Fe  0.45944314  0.24997841  0.53135278     1.54400
O488        O  0.46430283  0.27652146  0.47989101    -0.82500
O489        O  0.41367253  0.23217423  0.61528401    -0.80800
O490        O  0.44757099  0.33536817  0.48965842    -0.85000
O491        O  0.48721058  0.33703130  0.56015669    -0.79900
O492        O  0.41550410  0.21823033  0.50912014    -0.81600
O493        O  0.39157275  0.30727838  0.62721966    -0.84400
C494        C  0.51245817  0.31262080  0.56145152     0.96400
C495        C  0.46054016  0.31000297  0.46893021     1.03800
O496        O  0.42491289  0.28655880  0.55357576    -1.13400
O497        O  0.34494558  0.30546455  0.55664503    -0.75800
O498        O  0.38007957  0.34839687  0.52853708    -0.79300
O499        O  0.50652407  0.27879123  0.55171824    -0.80000
C500        C  0.34908212  0.33337556  0.53479163     0.95300
O501        O  0.42151654  0.35413679  0.59981468    -0.77900
O502        O  0.36756638  0.22935031  0.54652353    -0.83100
C503        C  0.44333227  0.21432961  0.60909422     0.97900
C504        C  0.38187354  0.21291681  0.51879594     1.03800
O505        O  0.46141817  0.21768728  0.57903173    -0.78800
C506        C  0.40720914  0.33883357  0.62831840     1.02100
Fe507      Fe  0.66479279  0.48052635  0.54977489     1.65800
Fe508      Fe  0.72550889  0.42145378  0.59278094     1.73200
Fe509      Fe  0.75323764  0.47602266  0.51786010     1.54400
O510        O  0.71973931  0.46404209  0.47082205    -0.82500
O511        O  0.77064546  0.45252878  0.60969062    -0.80800
O512        O  0.66244422  0.47018995  0.49367975    -0.85000
O513        O  0.68106933  0.53537318  0.53885411    -0.79900
O514        O  0.77931407  0.42462985  0.51393321    -0.81600
O515        O  0.69384824  0.44792174  0.63349885    -0.84400
C516        C  0.70790740  0.54948247  0.52091436     0.96400
C517        C  0.68452300  0.46598444  0.46652218     1.03800
O518        O  0.71452165  0.45903191  0.55313884    -1.13400
O519        O  0.68054937  0.38728276  0.57991346    -0.75800
O520        O  0.63975578  0.42934023  0.55952093    -0.79300
O521        O  0.73649419  0.53088116  0.51328754    -0.80000
C522        C  0.64783649  0.39647507  0.57050382     0.95300
O523        O  0.66213886  0.49330612  0.60559834    -0.77900
O524        O  0.75908986  0.38813752  0.55990250    -0.83100
C525        C  0.79013918  0.47921890  0.59665594     0.97900
C526        C  0.77952108  0.39398099  0.53177747     1.03800
O527        O  0.78696821  0.49105682  0.56299153    -0.78800
C528        C  0.67179573  0.47549881  0.63474329     1.02100
C529        C  0.58326792  0.31228492  0.55752889    -0.02700
C530        C  0.55007995  0.32671834  0.57275778     0.07000
C531        C  0.55236786  0.35994218  0.59412417    -0.02800
C532        C  0.58467601  0.38163490  0.59408555    -0.02800
C533        C  0.61642862  0.36963233  0.57482617     0.07100
C534        C  0.61639951  0.33350226  0.55913547    -0.03000
Br535      Br  0.66103822  0.31356258  0.53834307    -0.01500
Br536      Br  0.58380709  0.26454205  0.53289385    -0.01600
Br537      Br  0.58479567  0.42850869  0.62071881    -0.01600
Br538      Br  0.51147681  0.37694713  0.62418457    -0.01600
C539        C  0.38911797  0.39032746  0.67085785    -0.02700
C540        C  0.41106278  0.35877680  0.66409788     0.07000
C541        C  0.44310213  0.35302867  0.68576001    -0.02800
C542        C  0.45746970  0.38251926  0.70728256    -0.02800
C543        C  0.43917338  0.41716597  0.70740090     0.07100
C544        C  0.40314544  0.41962139  0.69256857    -0.03000
Br545      Br  0.37457017  0.46465306  0.69901648    -0.01500
Br546      Br  0.34090627  0.39404452  0.64881787    -0.01600
Br547      Br  0.50293909  0.37634602  0.73418575    -0.01600
Br548      Br  0.46868938  0.30601381  0.68301555    -0.01600
C549        C  0.60640980  0.46817215  0.71573187    -0.02700
C550        C  0.59248767  0.50482483  0.71457482     0.07000
C551        C  0.61522967  0.53322209  0.70043289    -0.02800
C552        C  0.64519219  0.52399749  0.67727523    -0.02800
C553        C  0.65376347  0.48614629  0.67058968     0.07100
C554        C  0.63767260  0.45871862  0.69418405    -0.03000
Br555      Br  0.65559104  0.40795625  0.69500928    -0.01500
Br556      Br  0.58202316  0.43132917  0.74601431    -0.01600
Br557      Br  0.67377823  0.56290996  0.65410751    -0.01600
Br558      Br  0.60597361  0.58392958  0.71522369    -0.01600
C559        C  0.31904853  0.56433722  0.58207740    -0.02700
C560        C  0.32006352  0.53226855  0.55957844     0.07000
C561        C  0.34452108  0.50302540  0.56909413    -0.02800
C562        C  0.37013970  0.50695053  0.59836370    -0.02800
C563        C  0.37002892  0.53959834  0.62100875     0.07100
C564        C  0.34274415  0.56744768  0.61349305    -0.03000
Br565      Br  0.33847573  0.61174928  0.64371672    -0.01500
Br566      Br  0.28915080  0.60633859  0.56663561    -0.01600
Br567      Br  0.40604468  0.46695618  0.60437950    -0.01600
Br568      Br  0.34451319  0.45745609  0.54026184    -0.01600
C569        C  0.30486129  0.38451468  0.45658294    -0.02700
C570        C  0.28374845  0.41048452  0.47686869     0.07000
C571        C  0.27310047  0.40069972  0.51401643    -0.02800
C572        C  0.29015010  0.37007141  0.53227694    -0.02800
C573        C  0.31776902  0.34985246  0.51387483     0.07100
C574        C  0.32201831  0.35454372  0.47513640    -0.03000
Br575      Br  0.35425132  0.32144787  0.44834395    -0.01500
Br576      Br  0.31121189  0.38983814  0.40370236    -0.01600
Br577      Br  0.27810295  0.35749291  0.58313494    -0.01600
Br578      Br  0.23916053  0.43087903  0.54249669    -0.01600
C579        C  0.68073575  0.61764246  0.44640764    -0.02700
C580        C  0.66499467  0.64602020  0.46807405     0.07000
C581        C  0.67534776  0.64905887  0.50580090    -0.02800
C582        C  0.69238220  0.61848446  0.52405180    -0.02800
C583        C  0.70311836  0.58701373  0.50325603     0.07100
C584        C  0.70213201  0.58957649  0.46375974    -0.03000
Br585      Br  0.72696835  0.55325049  0.43315001    -0.01500
Br586      Br  0.66924369  0.61460329  0.39400492    -0.01600
Br587      Br  0.70172095  0.62001986  0.57676260    -0.01600
Br588      Br  0.66690335  0.69564166  0.53111166    -0.01600
C589        C  0.40485496  0.68959220  0.41966123    -0.02700
C590        C  0.42847370  0.68205823  0.45016531     0.07000
C591        C  0.41800489  0.65488329  0.47651343    -0.02800
C592        C  0.38728801  0.63190295  0.47006750    -0.02800
C593        C  0.36645284  0.63528256  0.43665935     0.07100
C594        C  0.37426134  0.66581373  0.41239004    -0.03000
Br595      Br  0.34537381  0.67379982  0.36782686    -0.01500
Br596      Br  0.41447507  0.73255093  0.38841680    -0.01600
Br597      Br  0.37457414  0.59589028  0.50800675    -0.01600
Br598      Br  0.44680514  0.64852300  0.52157630    -0.01600
C599        C  0.53634424  0.63245631  0.61645933    -0.02700
C600        C  0.50193596  0.63992490  0.63404416     0.07000
C601        C  0.48282592  0.67319066  0.62382356    -0.02800
C602        C  0.49588000  0.69582596  0.59393850    -0.02800
C603        C  0.52744302  0.68500922  0.57355434     0.07100
C604        C  0.54888040  0.65500887  0.58695217    -0.03000
Br605      Br  0.59493838  0.64284026  0.56296393    -0.01500
Br606      Br  0.56641200  0.58955539  0.62940047    -0.01600
Br607      Br  0.46837843  0.73954411  0.57862412    -0.01600
Br608      Br  0.43638321  0.68608728  0.64680469    -0.01600
C609        C  0.61772700  0.49069762  0.38805246    -0.02700
C610        C  0.62071746  0.45938205  0.36442956     0.07000
C611        C  0.65061401  0.43425569  0.37030809    -0.02800
C612        C  0.67374506  0.43786624  0.40216123    -0.02800
C613        C  0.66673804  0.46590681  0.42874118     0.07100
C614        C  0.63917896  0.49302744  0.42068526    -0.03000
Br615      Br  0.62850668  0.53319527  0.45498699    -0.01500
Br616      Br  0.58480109  0.53168571  0.37559425    -0.01600
Br617      Br  0.71281337  0.40234809  0.41093045    -0.01600
Br618      Br  0.65931979  0.39351199  0.33644092    -0.01600
C619        C  0.52185260  0.35861329  0.39868517    -0.02700
C620        C  0.50159045  0.35495661  0.36529400     0.07000
C621        C  0.47053237  0.33110086  0.36488028    -0.02800
C622        C  0.45929320  0.31252133  0.39802505    -0.02800
C623        C  0.47608242  0.32160292  0.43236132     0.07100
C624        C  0.50812321  0.34389992  0.43227956    -0.03000
Br625      Br  0.53306511  0.35559200  0.47843207    -0.01500
Br626      Br  0.56794070  0.38523914  0.39914826    -0.01600
Br627      Br  0.42156316  0.27476957  0.39635855    -0.01600
Br628      Br  0.44257507  0.32511722  0.31968753    -0.01600
C629        C  0.57654871  0.62976367  0.31118116    -0.02700
C630        C  0.55097950  0.64710406  0.33501949     0.07000
C631        C  0.51374300  0.63651728  0.33337001    -0.02800
C632        C  0.50376663  0.60284716  0.31694775    -0.02800
C633        C  0.53003170  0.58278829  0.29628156     0.07100
C634        C  0.56572205  0.59780424  0.29094178    -0.03000
Br635      Br  0.60081362  0.57193985  0.26014531    -0.01500
Br636      Br  0.62606860  0.64875548  0.30761991    -0.01600
Br637      Br  0.45599379  0.58190286  0.32856812    -0.01600
Br638      Br  0.47680769  0.66721326  0.35594620    -0.01600
C639        C  0.38365390  0.53065399  0.27586902    -0.02700
C640        C  0.39525800  0.49320661  0.28021646     0.07000
C641        C  0.37053157  0.46701439  0.29551254    -0.02800
C642        C  0.33748592  0.47948272  0.31162762    -0.02800
C643        C  0.33191192  0.51782899  0.31743246     0.07100
C644        C  0.35269028  0.54345401  0.29603042    -0.03000
Br645      Br  0.34114316  0.59589615  0.29697127    -0.01500
Br646      Br  0.41152512  0.56462998  0.24487892    -0.01600
Br647      Br  0.29985769  0.44501442  0.32692660    -0.01600
Br648      Br  0.38313815  0.41478086  0.29687277    -0.01600
C649        C  0.63619557  0.48773439  0.11574021    -0.02700
C650        C  0.67119319  0.50060131  0.12861040     0.07000
C651        C  0.67787634  0.50057703  0.16785109    -0.02800
C652        C  0.65094485  0.48682418  0.19304163    -0.02800
C653        C  0.61649237  0.47438028  0.17978474     0.07100
C654        C  0.60951445  0.47439785  0.14115318    -0.03000
Br655      Br  0.56304043  0.45509985  0.12295254    -0.01500
Br656      Br  0.62166621  0.49149391  0.06374182    -0.01600
Br657      Br  0.66069910  0.48611976  0.24616520    -0.01600
Br658      Br  0.72285745  0.52050719  0.18855756    -0.01600
C659        C  0.83276350  0.51540133  0.68708427    -0.02700
C660        C  0.86861732  0.52524784  0.67570687     0.07000
C661        C  0.87852125  0.52187874  0.63773876    -0.02800
C662        C  0.85275830  0.50831579  0.61132971    -0.02800
C663        C  0.81692180  0.49727984  0.62290607     0.07100
C664        C  0.80691106  0.50226420  0.66090664    -0.03000
Br665      Br  0.75697456  0.49389212  0.67782517    -0.01500
Br666      Br  0.81954329  0.51777617  0.73936789    -0.01600
Br667      Br  0.86742230  0.50491387  0.55962488    -0.01600
Br668      Br  0.92741495  0.53644974  0.62176210    -0.01600
C669        C  0.80922012  0.58570607  0.86312232    -0.02700
C670        C  0.83347422  0.55646686  0.85321332     0.07000
C671        C  0.82663153  0.52035348  0.86796839    -0.02800
C672        C  0.79681636  0.51398141  0.89223231    -0.02800
C673        C  0.77832719  0.54431867  0.90819309     0.07100
C674        C  0.78325438  0.58010562  0.89214636    -0.03000
Br675      Br  0.75786451  0.62216687  0.91325327    -0.01500
Br676      Br  0.81433811  0.63443651  0.84083462    -0.01600
Br677      Br  0.78527144  0.46400629  0.90875065    -0.01600
Br678      Br  0.86075975  0.48015017  0.86042812    -0.01600
C679        C  0.85728754  0.67465681  0.06637546    -0.02700
C680        C  0.84520994  0.65176695  0.03660231     0.07000
C681        C  0.86613840  0.65168210  0.00332512    -0.02800
C682        C  0.90211707  0.66578466  0.00321626    -0.02800
C683        C  0.91434232  0.68892928  0.03235485     0.07100
C684        C  0.89085473  0.69498931  0.06314354    -0.03000
Br685      Br  0.90693509  0.72745714  0.10259433    -0.01500
Br686      Br  0.83101543  0.67468495  0.11307246    -0.01600
Br687      Br  0.93626994  0.64613719  0.96698206    -0.01600
Br688      Br  0.84730525  0.62895797  0.95836206    -0.01600
C689        C  0.00879634  0.66901849  0.85335684    -0.02700
C690        C  0.97022921  0.66387120  0.85154303     0.07000
C691        C  0.94733051  0.68615308  0.87401393    -0.02800
C692        C  0.96313570  0.70839036  0.90212573    -0.02800
C693        C  0.00124781  0.70540019  0.90982800     0.07100
C694        C  0.02445734  0.68818972  0.88370147    -0.03000
Br695      Br  0.07719260  0.69009183  0.89047543    -0.01500
Br696      Br  0.03940026  0.65091831  0.81354862    -0.01600
Br697      Br  0.93213465  0.73942150  0.93288971    -0.01600
Br698      Br  0.89454699  0.68317934  0.86943934    -0.01600
C699        C  0.09291992  0.49625558  0.79579982    -0.02700
C700        C  0.07076887  0.52345720  0.81370408     0.07000
C701        C  0.08324747  0.53798717  0.84814477    -0.02800
C702        C  0.11485302  0.52320417  0.86555804    -0.02800
C703        C  0.13144716  0.49025789  0.85204787     0.07100
C704        C  0.12156294  0.47790390  0.81594080    -0.03000
Br705      Br  0.14435980  0.43406276  0.79519582    -0.01500
Br706      Br  0.08329499  0.48248739  0.74465990    -0.01600
Br707      Br  0.13595681  0.54929976  0.90752082    -0.01600
Br708      Br  0.05673656  0.57721493  0.87338575    -0.01600
C709        C  0.36455583  0.48485628  0.81866673    -0.02700
C710        C  0.36808842  0.52317146  0.80928063     0.07000
C711        C  0.34409702  0.54918866  0.82639559    -0.02800
C712        C  0.31691212  0.53689123  0.85218456    -0.02800
C713        C  0.31376192  0.49863305  0.86138205     0.07100
C714        C  0.33825331  0.47290052  0.84493264    -0.03000
Br715      Br  0.33764883  0.42085760  0.86003917    -0.01500
Br716      Br  0.39476997  0.44741339  0.79510205    -0.01600
Br717      Br  0.28371141  0.57227827  0.87451693    -0.01600
Br718      Br  0.34965051  0.60186506  0.81633796    -0.01600
C719        C  0.13112833  0.59406327  0.03382782    -0.02700
C720        C  0.14116694  0.62961498  0.02035821     0.07000
C721        C  0.17422623  0.63360671  0.99991275    -0.02800
C722        C  0.19501338  0.60155003  0.98987538    -0.02800
C723        C  0.18163747  0.56544077  0.99881794     0.07100
C724        C  0.15046382  0.56222842  0.02276689    -0.03000
Br725      Br  0.13238473  0.51426669  0.04110361    -0.01500
Br726      Br  0.09013825  0.58812781  0.06763240    -0.01600
Br727      Br  0.24075136  0.60739494  0.96321511    -0.01600
Br728      Br  0.19001213  0.68264921  0.98460166    -0.01600
C729        C  0.97873369  0.40941417  0.81736310    -0.02700
C730        C  0.94645219  0.42733325  0.80500202     0.07000
C731        C  0.91216486  0.40998619  0.81103826    -0.02800
C732        C  0.90939733  0.37960174  0.83625040    -0.02800
C733        C  0.94182345  0.36446404  0.85289403     0.07100
C734        C  0.97664008  0.37790186  0.84076322    -0.03000
Br735      Br  0.02221802  0.35519646  0.85745308    -0.01500
Br736      Br  0.02609345  0.42976595  0.80446033    -0.01600
Br737      Br  0.86078205  0.36305892  0.85095825    -0.01600
Br738      Br  0.86976594  0.42714447  0.78314220    -0.01600
C739        C  0.81242760  0.36277869  0.97397305    -0.02700
C740        C  0.84915136  0.36168424  0.98837987     0.07000
C741        C  0.85842399  0.38621520  0.01798016    -0.02800
C742        C  0.83180854  0.41039251  0.03247200    -0.02800
C743        C  0.79840544  0.41655735  0.01342073     0.07100
C744        C  0.78741872  0.39079472  0.98603035    -0.03000
Br745      Br  0.73848961  0.39428367  0.96505606    -0.01500
Br746      Br  0.79711766  0.32970096  0.93451829    -0.01600
Br747      Br  0.84158277  0.43664030  0.07828720    -0.01600
Br748      Br  0.90825739  0.39206359  0.03691027    -0.01600
C749        C  0.09448864  0.29663824  0.91092789    -0.02700
C750        C  0.07881178  0.29496492  0.94699224     0.07000
C751        C  0.09957629  0.30817877  0.97731992    -0.02800
C752        C  0.13359900  0.32550195  0.97131113    -0.02800
C753        C  0.14420288  0.33597388  0.93495746     0.07100
C754        C  0.12647692  0.31860474  0.90449850    -0.03000
Br755      Br  0.14412732  0.32651486  0.85438848    -0.01500
Br756      Br  0.07140361  0.27060024  0.87058185    -0.01600
Br757      Br  0.16430164  0.33792907  0.01324355    -0.01600
Br758      Br  0.07964248  0.30778748  0.02685267    -0.01600
C759        C  0.11483299  0.51568952  0.32683648    -0.02700
C760        C  0.11624150  0.47756528  0.31617590     0.07000
C761        C  0.14257673  0.45386017  0.33361215    -0.02800
C762        C  0.16868629  0.46853179  0.35895786    -0.02800
C763        C  0.16823559  0.50684232  0.36798143     0.07100
C764        C  0.14041172  0.52993932  0.35285866    -0.03000
Br765      Br  0.13621924  0.58100879  0.36942288    -0.01500
Br766      Br  0.07906830  0.54978704  0.30544165    -0.01600
Br767      Br  0.20588322  0.43612072  0.38039122    -0.01600
Br768      Br  0.14183866  0.40066585  0.32485525    -0.01600
C769        C  0.17668684  0.40721932  0.12656489    -0.02700
C770        C  0.15988804  0.44065610  0.13901739     0.07000
C771        C  0.17473983  0.47491981  0.12605027    -0.02800
C772        C  0.20006981  0.47543031  0.09622721    -0.02800
C773        C  0.20815236  0.44218447  0.07737508     0.07100
C774        C  0.20059128  0.40816614  0.09538864    -0.03000
Br775      Br  0.22654719  0.36438457  0.07925785    -0.01500
Br776      Br  0.16656580  0.36019766  0.15055071    -0.01600
Br777      Br  0.22295984  0.52145018  0.08012976    -0.01600
Br778      Br  0.16007681  0.52127543  0.14809876    -0.01600
C779        C  0.01502718  0.62918351  0.15325724    -0.02700
C780        C  0.04985519  0.64342391  0.14290992     0.07000
C781        C  0.08184518  0.63029239  0.16155306    -0.02800
C782        C  0.07931684  0.59894444  0.18549322    -0.02800
C783        C  0.04515483  0.58115841  0.19066878     0.07100
C784        C  0.01276549  0.59919446  0.17859199    -0.03000
Br785      Br  0.96553882  0.58214556  0.19649375    -0.01500
Br786      Br  0.97060356  0.64855756  0.13054660    -0.01600
Br787      Br  0.12163837  0.58082236  0.21253018    -0.01600
Br788      Br  0.12947394  0.65196804  0.15112828    -0.01600
C789        C  0.03751369  0.31238043  0.12347127    -0.02700
C790        C  0.01806917  0.34487762  0.13426102     0.07000
C791        C  0.98025586  0.34772642  0.12478658    -0.02800
C792        C  0.96438657  0.32184649  0.10023692    -0.02800
C793        C  0.98683151  0.29622972  0.08142717     0.07100
C794        C  0.02146357  0.28755150  0.09736968    -0.03000
Br795      Br  0.04512172  0.24081320  0.08569090    -0.01500
Br796      Br  0.08632330  0.30274920  0.14233695    -0.01600
Br797      Br  0.91166117  0.31754763  0.09509066    -0.01600
Br798      Br  0.94996258  0.38706044  0.14465977    -0.01600
C799        C  0.85914121  0.50121470  0.16021735    -0.02700
C800        C  0.86141135  0.52690322  0.13025144     0.07000
C801        C  0.89659295  0.53851728  0.11788176    -0.02800
C802        C  0.92881050  0.52181998  0.13205326    -0.02800
C803        C  0.92680191  0.49615467  0.16225825     0.07100
C804        C  0.89176809  0.48686070  0.17705994    -0.03000
Br805      Br  0.88829652  0.45193528  0.21809662    -0.01500
Br806      Br  0.81170003  0.48373969  0.17640331    -0.01600
Br807      Br  0.97555341  0.53475383  0.10889698    -0.01600
Br808      Br  0.90087125  0.57740956  0.08043316    -0.01600
C809        C  0.51041087  0.16894061  0.67717634    -0.02700
C810        C  0.49058377  0.13650944  0.68890313     0.07000
C811        C  0.45391407  0.13150727  0.67546124    -0.02800
C812        C  0.43789437  0.15780422  0.65064791    -0.02800
C813        C  0.45839668  0.18879480  0.63809544     0.07100
C814        C  0.49456832  0.19427346  0.65149527    -0.03000
Br815      Br  0.52297405  0.23686036  0.63435814    -0.01500
Br816      Br  0.56030128  0.17948299  0.69399159    -0.01600
Br817      Br  0.38833323  0.15029825  0.63193281    -0.01600
Br818      Br  0.42442324  0.08919160  0.69060602    -0.01600
C819        C  0.51020876  0.64399466  0.87948194    -0.02700
C820        C  0.51607899  0.68147005  0.86880634     0.07000
C821        C  0.51345170  0.69186414  0.83080509    -0.02800
C822        C  0.50486297  0.66478885  0.80368154    -0.02800
C823        C  0.49707012  0.62760617  0.81468456     0.07100
C824        C  0.49964088  0.61745119  0.85281057    -0.03000
Br825      Br  0.48572012  0.56801557  0.86959285    -0.01500
Br826      Br  0.51764126  0.62861688  0.93082867    -0.01600
Br827      Br  0.50496336  0.67856035  0.75140751    -0.01600
Br828      Br  0.51920942  0.74351976  0.81609308    -0.01600
C829        C  0.57719721  0.86908721  0.82825381    -0.02700
C830        C  0.54269979  0.85640185  0.84203885     0.07000
C831        C  0.51019726  0.86771141  0.82328500    -0.02800
C832        C  0.51161558  0.89635255  0.79613093    -0.02800
C833        C  0.54526494  0.91487322  0.78941997     0.07100
C834        C  0.57813263  0.89776644  0.80119888    -0.03000
Br835      Br  0.62372227  0.91390872  0.77896099    -0.01500
Br836      Br  0.62326831  0.85111716  0.84875568    -0.01600
Br837      Br  0.46724981  0.91197851  0.77039840    -0.01600
Br838      Br  0.46366215  0.84533738  0.83572319    -0.01600
C839        C  0.62828336  0.65790194  0.96951945    -0.02700
C840        C  0.60966142  0.67934525  0.99657063     0.07000
C841        C  0.61435101  0.67034405  0.03466472    -0.02800
C842        C  0.63951519  0.64195473  0.04569090    -0.02800
C843        C  0.65966982  0.62162493  0.01858635     0.07100
C844        C  0.65160945  0.62816380  0.98034318    -0.03000
Br845      Br  0.67050398  0.59580780  0.94193450    -0.01500
Br846      Br  0.62165667  0.66893847  0.91696037    -0.01600
Br847      Br  0.64343384  0.62861897  0.09787887    -0.01600
Br848      Br  0.58709575  0.69779259  0.07169619    -0.01600
C849        C  0.83506014  0.19356542  0.01438020    -0.02700
C850        C  0.87128163  0.18169335  0.00595634     0.07000
C851        C  0.88174595  0.14460374  0.01468260    -0.02800
C852        C  0.85547941  0.11920466  0.02909816    -0.02800
C853        C  0.81811729  0.12995622  0.03335132     0.07100
C854        C  0.80826380  0.16766736  0.02651104    -0.03000
Br855      Br  0.75760531  0.18411238  0.03083187    -0.01500
Br856      Br  0.82263515  0.24601956  0.01188061    -0.01600
Br857      Br  0.87148029  0.07018129  0.04466427    -0.01600
Br858      Br  0.93166604  0.12764444  0.00591028    -0.01600
C859        C  0.67867344  0.02522417  0.85978196    -0.02700
C860        C  0.66283487  0.05875371  0.84621189     0.07000
C861        C  0.67573447  0.09300009  0.86080858    -0.02800
C862        C  0.69782435  0.09296309  0.89337999    -0.02800
C863        C  0.70769848  0.05907414  0.91074953     0.07100
C864        C  0.70200598  0.02556807  0.89131936    -0.03000
Br865      Br  0.72308420  0.97969129  0.91029012     0.05700
Br866      Br  0.66621223  0.97843603  0.83716087    -0.01600
Br867      Br  0.71422400  0.13889017  0.91526342    -0.01600
Br868      Br  0.66000875  0.13995442  0.83939940    -0.01600
C869        C  0.63612821  0.94386001  0.96972903    -0.02700
C870        C  0.66416897  0.94056366  0.99719898     0.07000
C871        C  0.67266028  0.90465570  0.01164457    -0.02800
C872        C  0.65191707  0.87294788  0.00017843    -0.02800
C873        C  0.62164238  0.87726157  0.97545774     0.07100
C874        C  0.61499926  0.91270469  0.95928369    -0.03000
Br875      Br  0.57721407  0.91881673  0.92140811    -0.01500
Br876      Br  0.62640822  0.99122165  0.94517795    -0.01600
Br877      Br  0.66454058  0.82393399  0.01867282    -0.01600
Br878      Br  0.71072925  0.89925938  0.04898145    -0.01600
C879        C  0.52074809  0.83102035  0.09393618    -0.02700
C880        C  0.49629561  0.80451202  0.07901008     0.07000
C881        C  0.46636882  0.79212583  0.10120018    -0.02800
C882        C  0.45571048  0.81289818  0.13297829    -0.02800
C883        C  0.47692064  0.84402837  0.14394755     0.07100
C884        C  0.51172319  0.84966458  0.12702274    -0.03000
Br885      Br  0.54707738  0.88325643  0.14893962    -0.01500
Br886      Br  0.56665997  0.84190729  0.06880817    -0.01600
Br887      Br  0.41130072  0.80013243  0.15967462    -0.01600
Br888      Br  0.44064958  0.74689902  0.08871299    -0.01600
C889        C  0.50335641  0.88278537  0.35118459    -0.02700
C890        C  0.49384207  0.87185268  0.31462219     0.07000
C891        C  0.49873394  0.83429895  0.30383977    -0.02800
C892        C  0.51218574  0.80776518  0.32964786    -0.02800
C893        C  0.52168887  0.81875280  0.36610735     0.07100
C894        C  0.51788617  0.85642255  0.37661302    -0.03000
Br895      Br  0.53390115  0.87214029  0.42550793    -0.01500
Br896      Br  0.49428894  0.93326656  0.36739310    -0.01600
Br897      Br  0.51611823  0.75602122  0.31542675    -0.01600
Br898      Br  0.48818022  0.81904205  0.25339258    -0.01600
C899        C  0.59317210  0.01677343  0.19615486    -0.02700
C900        C  0.56264213  0.99906494  0.17911521     0.07000
C901        C  0.56037348  0.99892595  0.13964012    -0.02800
C902        C  0.59047756  0.01009679  0.11796254    -0.02800
C903        C  0.62060184  0.02921591  0.13442335     0.07100
C904        C  0.62092352  0.03371760  0.17380074    -0.03000
Br905      Br  0.65733244  0.06507210  0.19743379    -0.01500
Br906      Br  0.59754668  0.01766135  0.24981233    -0.01600
Br907      Br  0.58976667  0.99577041  0.06585655    -0.01600
Br908      Br  0.51460580  0.98782528  0.11353743    -0.01600
C909        C  0.17183270  0.86421504  0.00358052    -0.02700
C910        C  0.16814168  0.87811989  0.96666975     0.07000
C911        C  0.13950142  0.86415184  0.94373221    -0.02800
C912        C  0.11557498  0.83593760  0.95721506    -0.02800
C913        C  0.11930869  0.82222543  0.99412892     0.07100
C914        C  0.14709759  0.83717302  0.01742394    -0.03000
Br915      Br  0.15041573  0.82224022  0.06938311    -0.01500
Br916      Br  0.21201694  0.88035650  0.03527346    -0.01600
Br917      Br  0.07875022  0.81505362  0.92438433    -0.01600
Br918      Br  0.13166649  0.88478817  0.89435261    -0.01600
C919        C  0.35085830  0.81891731  0.89973284    -0.02700
C920        C  0.33127266  0.83445019  0.92983162     0.07000
C921        C  0.33977924  0.82232496  0.96631907    -0.02800
C922        C  0.37288258  0.80289469  0.97336056    -0.02800
C923        C  0.39652177  0.79365331  0.94363666     0.07100
C924        C  0.38311694  0.79765293  0.90681616    -0.03000
Br925      Br  0.40861312  0.77305103  0.86693589    -0.01500
Br926      Br  0.33530858  0.82946550  0.84933460    -0.01600
Br927      Br  0.38708898  0.79223819  0.02383699    -0.01600
Br928      Br  0.30737197  0.83566394  0.00680050    -0.01600
C929        C  0.36154511  0.00310952  0.82433974    -0.02700
C930        C  0.36214914  0.97090947  0.84715383     0.07000
C931        C  0.39617767  0.95348019  0.85509622    -0.02800
C932        C  0.42940874  0.96938004  0.84287737    -0.02800
C933        C  0.42901109  0.00088044  0.81853102     0.07100
C934        C  0.39479370  0.01778141  0.80959770    -0.03000
Br935      Br  0.39387028  0.06466358  0.78298777    -0.01500
Br936      Br  0.31576655  0.02914764  0.81643997    -0.01600
Br937      Br  0.47477458  0.94908232  0.86373443    -0.01600
Br938      Br  0.39752376  0.90892723  0.88600535    -0.01600
C939        C  0.29353789  0.95369041  0.09768255    -0.02700
C940        C  0.30843651  0.95316672  0.06119674     0.07000
C941        C  0.34730869  0.94963567  0.05683529    -0.02800
C942        C  0.37033074  0.94509274  0.08789274    -0.02800
C943        C  0.35571752  0.94624692  0.12432292     0.07100
C944        C  0.31723120  0.95044316  0.12925052    -0.03000
Br945      Br  0.29730402  0.95221907  0.17903974    -0.01500
Br946      Br  0.24095968  0.95744443  0.10448225    -0.01600
Br947      Br  0.42249168  0.93528173  0.07961752    -0.01600
Br948      Br  0.37110754  0.95188332  0.00834359    -0.01600
C949        C  0.47958912  0.33295862  0.18902143    -0.02700
C950        C  0.48157392  0.37162121  0.17981632     0.07000
C951        C  0.46512384  0.38378746  0.14549166    -0.02800
C952        C  0.44983189  0.35762069  0.12052593    -0.02800
C953        C  0.45166162  0.31916373  0.12826544     0.07100
C954        C  0.46467743  0.30720038  0.16343921    -0.03000
Br955      Br  0.46220361  0.25520027  0.17692352    -0.01500
Br956      Br  0.49612751  0.31375025  0.23687011    -0.01600
Br957      Br  0.42333507  0.37446241  0.07670284    -0.01600
Br958      Br  0.46375160  0.43572165  0.13010295    -0.01600
C959        C  0.46655527  0.10269822  0.19623627    -0.02700
C960        C  0.43867511  0.07579090  0.19787710     0.07000
C961        C  0.40411216  0.08261078  0.18113400    -0.02800
C962        C  0.39893938  0.11470793  0.15876705    -0.02800
C963        C  0.42850759  0.14002185  0.15363575     0.07100
C964        C  0.46132064  0.13490957  0.17458494    -0.03000
Br965      Br  0.50150481  0.16926145  0.17038428    -0.01500
Br966      Br  0.51407716  0.09242669  0.21893312    -0.01600
Br967      Br  0.35371083  0.11994339  0.13068243    -0.01600
Br968      Br  0.36574852  0.04535964  0.18509384    -0.01600
C969        C  0.59207528  0.20150162  0.09249138    -0.02700
C970        C  0.57658032  0.21262165  0.05830743     0.07000
C971        C  0.59839714  0.21022901  0.02603838    -0.02800
C972        C  0.63119934  0.18891987  0.02658558    -0.02800
C973        C  0.64211187  0.16943893  0.05949110     0.07100
C974        C  0.62409056  0.17887284  0.09338391    -0.03000
Br975      Br  0.64009523  0.15906946  0.14091869    -0.01500
Br976      Br  0.57124173  0.22128129  0.13736129    -0.01600
Br977      Br  0.66015836  0.18608573  0.98174715    -0.01600
Br978      Br  0.58198776  0.23463628  0.98070438    -0.01600
C979        C  0.34488145  0.08213455  0.95921982    -0.02700
C980        C  0.31062891  0.07290869  0.97536251     0.07000
C981        C  0.29553521  0.09667186  0.00267835    -0.02800
C982        C  0.31671456  0.12659890  0.01698820    -0.02800
C983        C  0.35357445  0.13204478  0.00480890     0.07100
C984        C  0.36638628  0.11119036  0.97398679    -0.03000
Br985      Br  0.41303183  0.12259530  0.95061346    -0.01500
Br986      Br  0.36219804  0.05517853  0.91614608    -0.01600
Br987      Br  0.29526870  0.15862788  0.05422453    -0.01600
Br988      Br  0.24691683  0.08678191  0.02234806    -0.01600
C989        C  0.37953046  0.34671305  0.97442329    -0.02700
C990        C  0.36714858  0.31035690  0.98339544     0.07000
C991        C  0.32994408  0.30074639  0.97619735    -0.02800
C992        C  0.30494340  0.32778184  0.96231037    -0.02800
C993        C  0.31659148  0.36514902  0.95685157     0.07100
C994        C  0.35416044  0.37432438  0.96279868    -0.03000
Br995      Br  0.37141973  0.42501511  0.95601544    -0.01500
Br996      Br  0.43118879  0.35954526  0.97877855    -0.01600
Br997      Br  0.25410699  0.31368796  0.95357821    -0.01600
Br998      Br  0.31321917  0.25012066  0.98449878    -0.01600
C999        C  0.54639470  0.13442354  0.90682385    -0.02700
C1000       C  0.53123457  0.14045232  0.87113021     0.07000
C1001       C  0.50475142  0.16893809  0.86554010    -0.02800
C1002       C  0.49166565  0.18957265  0.89639005    -0.02800
C1003       C  0.50428206  0.18072924  0.93267454     0.07100
C1004       C  0.53205137  0.15325837  0.93758992    -0.03000
Br1005     Br  0.54904145  0.13835188  0.98672010    -0.01500
Br1006     Br  0.58659386  0.09926613  0.91386618    -0.01600
Br1007     Br  0.45392918  0.22699150  0.88961934    -0.01600
Br1008     Br  0.48436410  0.17747973  0.81645860    -0.01600
C1009       C  0.02808861  0.64645185  0.68220790    -0.02700
C1010       C  0.98985602  0.63915679  0.68172562     0.07000
C1011       C  0.96702625  0.65875404  0.65627057    -0.02800
C1012       C  0.98223603  0.68533474  0.63141852    -0.02800
C1013       C  0.02078518  0.69244928  0.63129513     0.07100
C1014       C  0.04348243  0.67319650  0.65758930    -0.03000
Br1015     Br  0.09599865  0.68248935  0.66074508    -0.01500
Br1016     Br  0.05947009  0.62048584  0.71758001    -0.01600
Br1017     Br  0.94906102  0.71354291  0.59954245    -0.01600
Br1018     Br  0.91466434  0.64807114  0.65424187    -0.01600
C1019       C  0.16756189  0.63103844  0.51155010    -0.02700
C1020       C  0.18101853  0.63398517  0.47440413     0.07000
C1021       C  0.16523931  0.66170574  0.45048106    -0.02800
C1022       C  0.13632333  0.68503783  0.46332788    -0.02800
C1023       C  0.12384056  0.68229866  0.50053138     0.07100
C1024       C  0.13845899  0.65393884  0.52375215    -0.03000
Br1025     Br  0.11646061  0.64428027  0.57194620    -0.01500
Br1026     Br  0.19033738  0.59805880  0.54804973    -0.01600
Br1027     Br  0.11324247  0.72013849  0.42945475    -0.01600
Br1028     Br  0.18296498  0.66938238  0.40011753    -0.01600
C1029       C  0.67802922  0.86694474  0.47621176    -0.02700
C1030       C  0.68419297  0.87065849  0.51506239     0.07000
C1031       C  0.66252637  0.84940467  0.54026420    -0.02800
C1032       C  0.63614182  0.82371045  0.52675211    -0.02800
C1033       C  0.63171491  0.81852731  0.48796692     0.07100
C1034       C  0.65271405  0.84043411  0.46279740    -0.03000
Br1035     Br  0.64590844  0.83558245  0.40935073    -0.01500
Br1036     Br  0.70319987  0.89874917  0.44052150    -0.01600
Br1037     Br  0.60650213  0.79529718  0.56151946    -0.01600
Br1038     Br  0.66641908  0.85774375  0.59334967    -0.01600
C1039       C  0.90774669  0.89255405  0.58068616    -0.02700
C1040       C  0.87491966  0.88004054  0.56380420     0.07000
C1041       C  0.87513757  0.84607344  0.54400782    -0.02800
C1042       C  0.90869922  0.82629745  0.53878488    -0.02800
C1043       C  0.94226719  0.84037719  0.55348671     0.07100
C1044       C  0.94132412  0.87419725  0.57413984    -0.03000
Br1045     Br  0.98561978  0.89889240  0.59153813    -0.01500
Br1046     Br  0.90671081  0.93526467  0.61371773    -0.01600
Br1047     Br  0.90913871  0.78310207  0.50686265    -0.01600
Br1048     Br  0.82992922  0.82761537  0.52247395    -0.01600
C1049       C  0.60903420  0.02141338  0.63496976    -0.02700
C1050       C  0.61913521  0.02768812  0.67248057     0.07000
C1051       C  0.65532107  0.01938369  0.68449984    -0.02800
C1052       C  0.68140003  0.00534166  0.65918829    -0.02800
C1053       C  0.67130405  0.99843507  0.62163796     0.07100
C1054       C  0.63485789  0.00640651  0.60972400    -0.03000
Br1055     Br  0.61917929  0.99440070  0.55962373    -0.01500
Br1056     Br  0.55994238  0.03411890  0.61791681    -0.01600
Br1057     Br  0.73119112  0.99668847  0.67668351    -0.01600
Br1058     Br  0.66883352  0.02479150  0.73645457    -0.01600
C1059       C  0.11046453  0.03499769  0.84678639    -0.02700
C1060       C  0.11670808  0.03634087  0.80802883     0.07000
C1061       C  0.15169799  0.02668776  0.79422789    -0.02800
C1062       C  0.17935028  0.01260558  0.81856309    -0.02800
C1063       C  0.17272514  0.00879907  0.85773178     0.07100
C1064       C  0.13784783  0.02119542  0.87156557    -0.03000
Br1065     Br  0.12476787  0.01699715  0.92379956    -0.01500
Br1066     Br  0.06379433  0.05288294  0.86584720    -0.01600
Br1067     Br  0.22563306  0.99809639  0.79619354    -0.01600
Br1068     Br  0.16119306  0.03194373  0.74135008    -0.01600
C1069       C  0.02729647  0.85784037  0.67063475    -0.02700
C1070       C  0.06465435  0.85743086  0.65980421     0.07000
C1071       C  0.08965244  0.88196832  0.67696996    -0.02800
C1072       C  0.07618468  0.91108175  0.69941946    -0.02800
C1073       C  0.03783066  0.91595751  0.70390632     0.07100
C1074       C  0.01361257  0.88782747  0.69164710    -0.03000
Br1075     Br  0.96135032  0.89301985  0.69863843    -0.01500
Br1076     Br  0.99450386  0.81908420  0.65316324    -0.01600
Br1077     Br  0.10956858  0.94778519  0.71932513    -0.01600
Br1078     Br  0.14149187  0.87837589  0.66639306    -0.01600
C1079       C  0.99449955  0.17230610  0.80480626    -0.02700
C1080       C  0.98333305  0.13411441  0.80583768     0.07000
C1081       C  0.95714894  0.12297818  0.83340110    -0.02800
C1082       C  0.94713197  0.14763002  0.86220680    -0.02800
C1083       C  0.95988898  0.18463041  0.86182430     0.07100
C1084       C  0.98071168  0.19761513  0.83136982    -0.03000
Br1085     Br  0.98901307  0.25055942  0.82546544    -0.01500
Br1086     Br  0.03034915  0.19126040  0.76942265    -0.01600
Br1087     Br  0.91404044  0.13158380  0.90136915    -0.01600
Br1088     Br  0.93210107  0.07530450  0.83118355    -0.01600
C1089       C  0.87374580  0.03846853  0.69836106    -0.02700
C1090       C  0.89369002  0.00971489  0.71597773     0.07000
C1091       C  0.87799039  0.97390780  0.71764556    -0.02800
C1092       C  0.84865637  0.96454364  0.69331029    -0.02800
C1093       C  0.83447807  0.99202006  0.66837267     0.07100
C1094       C  0.84361109  0.02966353  0.67518291    -0.03000
Br1095     Br  0.81430289  0.06880836  0.65358348    -0.01500
Br1096     Br  0.88947460  0.08941270  0.70469436    -0.01600
Br1097     Br  0.83027059  0.91405079  0.69333924    -0.01600
Br1098     Br  0.89715670  0.93862040  0.75340848    -0.01600
C1099       C  0.98627861  0.37628098  0.34008503    -0.02700
C1100       C  0.98724763  0.36997237  0.30136496     0.07000
C1101       C  0.97074890  0.33757816  0.28686662    -0.02800
C1102       C  0.95530140  0.31039723  0.31106458    -0.02800
C1103       C  0.95560643  0.31577865  0.35042894     0.07100
C1104       C  0.96969314  0.34998714  0.36437659    -0.03000
Br1105     Br  0.96370545  0.36308436  0.41629535    -0.01500
Br1106     Br  0.00879667  0.42083218  0.35991530    -0.01600
Br1107     Br  0.93463090  0.26592204  0.28907587    -0.01600
Br1108     Br  0.96876242  0.33108039  0.23341163    -0.01600
C1109       C  0.81259277  0.15397809  0.50099898    -0.02700
C1110       C  0.80828336  0.15480308  0.46200509     0.07000
C1111       C  0.78205096  0.13144326  0.44531467    -0.02800
C1112       C  0.76493987  0.10309980  0.46672134    -0.02800
C1113       C  0.77745028  0.09595109  0.50386122     0.07100
C1114       C  0.79792112  0.12410690  0.52184087    -0.03000
Br1115     Br  0.80611248  0.12209479  0.57464954    -0.01500
Br1116     Br  0.84227031  0.19173540  0.52483494    -0.01600
Br1117     Br  0.72784370  0.07251503  0.44286967    -0.01600
Br1118     Br  0.77343736  0.13543955  0.39234154    -0.01600
C1119       C  0.86715454  0.33717826  0.51381709    -0.02700
C1120       C  0.85398522  0.30971572  0.48870707     0.07000
C1121       C  0.81506465  0.30766827  0.48243159    -0.02800
C1122       C  0.79111603  0.33516212  0.49652699    -0.02800
C1123       C  0.80474490  0.36386888  0.51900335     0.07100
C1124       C  0.84250642  0.36391257  0.52892277    -0.03000
Br1125     Br  0.86018286  0.40065281  0.56372377    -0.01500
Br1126     Br  0.91860153  0.33915017  0.52785677    -0.01600
Br1127     Br  0.73926752  0.33421674  0.48422857    -0.01600
Br1128     Br  0.79254515  0.26615901  0.45680980    -0.01600
C1129       C  0.96435786  0.18375259  0.58231252    -0.02700
C1130       C  0.95865793  0.16328698  0.54906983     0.07000
C1131       C  0.96833550  0.12500145  0.54846170    -0.02800
C1132       C  0.98219614  0.10727211  0.58064052    -0.02800
C1133       C  0.98708335  0.12730900  0.61421609     0.07100
C1134       C  0.97892831  0.16588022  0.61467888    -0.03000
Br1135     Br  0.98666289  0.19388032  0.65978747    -0.01500
Br1136     Br  0.95016747  0.23562369  0.58429384    -0.01600
Br1137     Br  0.99604673  0.05509569  0.57748589    -0.01600
Br1138     Br  0.96493477  0.09614588  0.50292741    -0.01600
C1139       C  0.82634622  0.97580177  0.19100469    -0.02700
C1140       C  0.86160962  0.96606150  0.17707318     0.07000
C1141       C  0.86653207  0.96509459  0.13791042    -0.02800
C1142       C  0.83824541  0.97719699  0.11327837    -0.02800
C1143       C  0.80441125  0.99120745  0.12738018     0.07100
C1144       C  0.79799275  0.98814022  0.16633879    -0.03000
Br1145     Br  0.74935874  0.99826993  0.18580002    -0.01500
Br1146     Br  0.81690071  0.97359450  0.24401949    -0.01600
Br1147     Br  0.84700130  0.97463051  0.06014373    -0.01600
Br1148     Br  0.91191031  0.94565129  0.11756917    -0.01600
C1149       C  0.85184085  0.99307475  0.37513663    -0.02700
C1150       C  0.86196277  0.95718287  0.36245949     0.07000
C1151       C  0.84586623  0.92548219  0.38019523    -0.02800
C1152       C  0.82261054  0.93003481  0.41173914    -0.02800
C1153       C  0.81589280  0.96591776  0.42622939     0.07100
C1154       C  0.83055385  0.99721568  0.40753998    -0.03000
Br1155     Br  0.82507197  0.04614589  0.42849645    -0.01500
Br1156     Br  0.86730587  0.03757575  0.34878652    -0.01600
Br1157     Br  0.80326477  0.88701946  0.43775874    -0.01600
Br1158     Br  0.85768624  0.87554551  0.36414067    -0.01600
C1159       C  0.99112232  0.83689991  0.36923166    -0.02700
C1160       C  0.00463328  0.87293023  0.35999647     0.07000
C1161       C  0.03579871  0.88642058  0.37995041    -0.02800
C1162       C  0.05058418  0.86649879  0.41062263    -0.02800
C1163       C  0.03378185  0.83263775  0.42327656     0.07100
C1164       C  0.00547429  0.81698880  0.40052392    -0.03000
Br1165     Br  0.98460174  0.76835589  0.41148208    -0.01500
Br1166     Br  0.95099518  0.81524347  0.34103776    -0.01600
Br1167     Br  0.09376497  0.88804151  0.43470320    -0.01600
Br1168     Br  0.05894676  0.93362677  0.36698323    -0.01600
C1169       C  0.96214220  0.11904887  0.28033946    -0.02700
C1170       C  0.93720721  0.09096951  0.27004145     0.07000
C1171       C  0.89915490  0.09716320  0.27520745    -0.02800
C1172       C  0.88735308  0.12641139  0.29855425    -0.02800
C1173       C  0.91397203  0.14880790  0.31628472     0.07100
C1174       C  0.95065712  0.14802199  0.30364837    -0.03000
Br1175     Br  0.98568728  0.18463243  0.32118613    -0.01500
Br1176     Br  0.01234089  0.11622615  0.26481782    -0.01600
Br1177     Br  0.83573542  0.13420336  0.30830715    -0.01600
Br1178     Br  0.86409543  0.06405833  0.25235058    -0.01600
C1179       C  0.01115983  0.88480797  0.13784891    -0.02700
C1180       C  0.00036371  0.87363368  0.17448672     0.07000
C1181       C  0.00217183  0.83510198  0.18417943    -0.02800
C1182       C  0.01181987  0.80833850  0.15717889    -0.02800
C1183       C  0.02121960  0.81969459  0.12081782     0.07100
C1184       C  0.02116630  0.85780523  0.11126375    -0.03000
Br1185     Br  0.03403502  0.87273969  0.06090692    -0.01500
Br1186     Br  0.01182014  0.93663046  0.12225320    -0.01600
Br1187     Br  0.01020702  0.75566403  0.16911700    -0.01600
Br1188     Br  0.99373278  0.81819594  0.23482650    -0.01600
C1189       C  0.36882130  0.14958614  0.48990869    -0.02700
C1190       C  0.35729461  0.18635985  0.49797579     0.07000
C1191       C  0.32017142  0.19645291  0.48999133    -0.02800
C1192       C  0.29477841  0.16994027  0.47613540    -0.02800
C1193       C  0.30520074  0.13226303  0.47196734     0.07100
C1194       C  0.34277772  0.12246207  0.47825283    -0.03000
Br1195     Br  0.35933853  0.07176944  0.47054094    -0.01500
Br1196     Br  0.42011210  0.13570751  0.49557978    -0.01600
Br1197     Br  0.24520176  0.18548244  0.46431623    -0.01600
Br1198     Br  0.30341111  0.24703576  0.49750038    -0.01600
C1199       C  0.04505186  0.12790188  0.40674861    -0.02700
C1200       C  0.04313275  0.16274571  0.42557957     0.07000
C1201       C  0.07537481  0.17588366  0.44375387    -0.02800
C1202       C  0.10823813  0.15411508  0.44412197    -0.02800
C1203       C  0.10964838  0.11925837  0.42588754     0.07100
C1204       C  0.07778625  0.10662606  0.40689513    -0.03000
Br1205     Br  0.07797937  0.05903227  0.38129173    -0.01500
Br1206     Br  0.00265194  0.10716025  0.38109491    -0.01600
Br1207     Br  0.14972497  0.16992818  0.47360350    -0.01600
Br1208     Br  0.07387718  0.22179055  0.47157797    -0.01600
C1209       C  0.14061098  0.07112239  0.61298707    -0.02700
C1210       C  0.11566976  0.04230575  0.62332182     0.07000
C1211       C  0.11846805  0.00731032  0.60544955    -0.02800
C1212       C  0.14480432  0.00159365  0.57730890    -0.02800
C1213       C  0.16731833  0.03119467  0.56465560     0.07100
C1214       C  0.16605355  0.06566206  0.58343647    -0.03000
Br1215     Br  0.19687991  0.10628365  0.56651169    -0.01500
Br1216     Br  0.13738861  0.11954211  0.63606706    -0.01600
Br1217     Br  0.14927234  0.95278115  0.55516973    -0.01600
Br1218     Br  0.08525117  0.96683882  0.61752958    -0.01600
C1219       C  0.13647873  0.97484273  0.31468488    -0.02700
C1220       C  0.14700353  0.01175273  0.32364087     0.07000
C1221       C  0.13272396  0.04106823  0.30087506    -0.02800
C1222       C  0.10252901  0.03398879  0.27677170    -0.02800
C1223       C  0.08555547  0.99872589  0.27672611     0.07100
C1224       C  0.10571856  0.96844310  0.29125532    -0.03000
Br1225     Br  0.09149621  0.91868174  0.27702550    -0.01500
Br1226     Br  0.16498211  0.93337149  0.33302281    -0.01600
Br1227     Br  0.08769559  0.07018758  0.24018086    -0.01600
Br1228     Br  0.15230815  0.09115903  0.30316561    -0.01600
C1229       C  0.36287849  0.01610572  0.32380332    -0.02700
C1230       C  0.36448752  0.97752413  0.31568942     0.07000
C1231       C  0.34159422  0.95252910  0.33557992    -0.02800
C1232       C  0.31727018  0.96599789  0.36315681    -0.02800
C1233       C  0.31595271  0.00451669  0.37121198     0.07100
C1234       C  0.33934831  0.02936193  0.35191943    -0.03000
Br1235     Br  0.34023244  0.08170899  0.36510159    -0.01500
Br1236     Br  0.39071727  0.05188425  0.29508538    -0.01600
Br1237     Br  0.28497786  0.93174034  0.38895623    -0.01600
Br1238     Br  0.34418770  0.89968805  0.32569557    -0.01600
C1239       C  0.19495265  0.87668514  0.46444824    -0.02700
C1240       C  0.21206835  0.90517136  0.48522600     0.07000
C1241       C  0.22027032  0.89798406  0.52344756    -0.02800
C1242       C  0.20278416  0.86798067  0.54202082    -0.02800
C1243       C  0.17886707  0.84448946  0.52225709     0.07100
C1244       C  0.17852722  0.84623281  0.48305013    -0.03000
Br1245     Br  0.15174719  0.80886976  0.45568723    -0.01500
Br1246     Br  0.19362600  0.87950178  0.41090443    -0.01600
Br1247     Br  0.20804746  0.86117547  0.59505559    -0.01600
Br1248     Br  0.25152235  0.93082618  0.55213917    -0.01600
loop_ 
_geom_bond_atom_site_label_1 
_geom_bond_atom_site_label_2 
_geom_bond_distance 
_geom_bond_site_symmetry_2 
_ccdc_geom_bond_type 
Fe1          O17   2.072   1_545  S
Fe1           O7   2.078   1_545  S
Fe1          O14   2.071       .  S
Fe1           O6   2.056       .  S
Fe1          O12   1.964       .  S
Fe2           O5   2.066       .  S
Fe2           O9   2.088       .  S
Fe2          O13   2.100       .  S
Fe2          O18   2.095       .  S
Fe2          O12   1.978       .  S
Fe3          O21   2.087       .  S
Fe3           O8   2.061       .  S
Fe3          O15   2.057   1_545  S
Fe3           O4   2.105       .  S
Fe3          O12   1.978       .  S
O4           C11   1.281       .  A
O5           C19   1.277       .  A
O6           C11   1.272       .  A
O7           C10   1.268       .  A
O8           C20   1.263       .  A
O9           C22   1.269       .  A
C10          O15   1.261       .  A
C10        C1240   1.494       .  S
C11        C1213   1.488       .  S
O13          C16   1.279       .  A
O14          C16   1.273       .  A
C16        C1203   1.500       .  S
O17          C22   1.269   1_565  A
O18          C20   1.271       .  A
C19          O21   1.280       .  A
C19        C1233   1.478       .  S
C20        C1193   1.504       .  S
C22        C1220   1.505       .  S
Fe23         O39   2.045       .  S
Fe23         O29   2.068   1_655  S
Fe23         O36   2.050       .  S
Fe23         O28   2.058   1_565  S
Fe23         O34   1.965       .  S
Fe24         O27   2.076       .  S
Fe24         O31   2.114       .  S
Fe24         O35   2.096       .  S
Fe24         O40   2.099       .  S
Fe24         O34   1.984       .  S
Fe25         O43   2.066       .  S
Fe25         O30   2.090       .  S
Fe25         O37   2.108   1_655  S
Fe25         O26   2.082   1_565  S
Fe25         O34   1.986       .  S
O26          C33   1.269       .  A
O27          C41   1.270       .  A
O28          C33   1.268       .  A
O29          C32   1.269       .  A
O30          C42   1.276       .  A
O31          C44   1.278       .  A
C32          O37   1.273       .  A
C32        C1223   1.495       .  S
C33        C1170   1.476       .  S
O35          C38   1.271       .  A
O36          C38   1.267       .  A
C38        C1150   1.501       .  S
O39          C44   1.266       .  A
O40          C42   1.278       .  A
C41          O43   1.267       .  A
C41        C1180   1.499   1_655  S
C42        C1140   1.507       .  S
C44        C1160   1.510   1_655  S
Fe45         O61   2.048       .  S
Fe45         O51   2.050       .  S
Fe45         O58   2.041       .  S
Fe45         O50   2.057       .  S
Fe45         O56   1.948       .  S
Fe46         O49   2.065       .  S
Fe46         O53   2.084       .  S
Fe46         O57   2.077       .  S
Fe46         O62   2.056       .  S
Fe46         O56   1.975       .  S
Fe47         O65   2.097       .  S
Fe47         O52   2.119       .  S
Fe47         O59   2.119   1_655  S
Fe47         O48   2.101       .  S
Fe47         O56   1.960       .  S
O48          C55   1.274       .  A
O49          C63   1.269       .  A
O50          C55   1.268       .  A
O51          C54   1.263   1_655  A
O52          C64   1.282       .  A
O53          C66   1.271       .  A
C54          O59   1.281       .  A
C54        C1200   1.507       .  S
C55        C1130   1.493       .  S
O57          C60   1.265       .  A
O58          C60   1.260       .  A
C60        C1110   1.470       .  S
O61          C66   1.270       .  A
O62          C64   1.268       .  A
C63          O65   1.276       .  A
C63        C1103   1.506       .  S
C64        C1120   1.511       .  S
C66        C1173   1.470       .  S
Fe67         O83   2.091       .  S
Fe67         O73   2.034   1_545  S
Fe67         O80   2.038   1_455  S
Fe67         O72   2.058   1_455  S
Fe67         O78   1.937       .  S
Fe68         O71   2.111       .  S
Fe68         O75   2.074       .  S
Fe68         O79   2.128       .  S
Fe68         O84   2.070       .  S
Fe68         O78   1.965       .  S
Fe69         O87   2.055       .  S
Fe69         O74   2.088   1_455  S
Fe69         O81   2.107   1_545  S
Fe69         O70   2.087   1_455  S
Fe69         O78   1.962       .  S
O70          C77   1.269       .  A
O71          C85   1.276       .  A
O72          C77   1.266       .  A
O73          C76   1.266       .  A
O74          C86   1.276       .  A
O75          C88   1.271       .  A
C76          O81   1.277       .  A
C76        C1073   1.474       .  S
C77        C1090   1.478       .  S
O79          C82   1.277   1_455  A
O80          C82   1.260       .  A
C82        C1133   1.491       .  S
O83          C88   1.274       .  A
O84          C86   1.273   1_455  A
C85          O87   1.268       .  A
C85        C1060   1.490       .  S
C86        C1080   1.504       .  S
C88        C1210   1.495       .  S
Fe89        O105   2.062       .  S
Fe89         O95   2.066       .  S
Fe89        O102   2.071   1_565  S
Fe89         O94   2.089   1_565  S
Fe89        O100   1.961       .  S
Fe90         O93   2.083       .  S
Fe90         O97   2.083       .  S
Fe90        O101   2.088       .  S
Fe90        O106   2.077       .  S
Fe90        O100   1.983       .  S
Fe91        O109   2.038       .  S
Fe91         O96   2.076       .  S
Fe91        O103   2.105       .  S
Fe91         O92   2.043   1_565  S
Fe91        O100   1.968       .  S
O92          C99   1.256       .  A
O93         C107   1.268       .  A
O94          C99   1.269       .  A
O95          C98   1.274       .  A
O96         C108   1.278       .  A
O97         C110   1.271       .  A
C98         O103   1.282       .  A
C98        C1153   1.487       .  S
C99        C1113   1.499       .  S
O101        C104   1.271       .  A
O102        C104   1.272   1_545  A
C104       C1093   1.499       .  S
O105        C110   1.270       .  A
O106        C108   1.277       .  A
C107        O109   1.258       .  A
C107       C1030   1.488       .  S
C108       C1053   1.486       .  S
C110       C1040   1.487       .  S
Fe111       O127   2.047       .  S
Fe111       O117   2.041       .  S
Fe111       O124   2.044       .  S
Fe111       O116   2.051       .  S
Fe111       O122   1.946       .  S
Fe112       O115   2.064       .  S
Fe112       O119   2.082       .  S
Fe112       O123   2.090       .  S
Fe112       O128   2.066       .  S
Fe112       O122   1.967       .  S
Fe113       O131   2.099       .  S
Fe113       O118   2.092       .  S
Fe113       O125   2.108       .  S
Fe113       O114   2.105   1_455  S
Fe113       O122   1.962       .  S
O114        C121   1.277       .  A
O115        C129   1.272       .  A
O116        C121   1.263   1_455  A
O117        C120   1.260       .  A
O118        C130   1.274       .  A
O119        C132   1.268       .  A
C120        O125   1.278       .  A
C120       C1163   1.518       .  S
C121       C1043   1.498       .  S
O123        C126   1.271       .  A
O124        C126   1.267       .  A
C126       C1070   1.475       .  S
O127        C132   1.263       .  A
O128        C130   1.268       .  A
C129        O131   1.279       .  A
C129       C1023   1.495       .  S
C130       C1013   1.501       .  S
C132       C1243   1.473       .  S
Fe133       O149   2.089       .  S
Fe133       O139   2.024   1_554  S
Fe133       O146   2.025       .  S
Fe133       O138   2.080       .  S
Fe133       O144   1.943       .  S
Fe134       O137   2.073       .  S
Fe134       O141   2.077       .  S
Fe134       O145   2.098       .  S
Fe134       O150   2.068       .  S
Fe134       O144   1.973       .  S
Fe135       O153   2.073   1_554  S
Fe135       O140   2.097       .  S
Fe135       O147   2.101   1_554  S
Fe135       O136   2.081       .  S
Fe135       O144   1.968       .  S
O136        C143   1.270       .  A
O137        C151   1.268       .  A
O138        C143   1.272       .  A
O139        C142   1.261       .  A
O140        C152   1.280       .  A
O141        C154   1.272       .  A
C142        O147   1.275       .  A
C142       C1003   1.477       .  S
C143        C970   1.487       .  S
O145        C148   1.271       .  A
O146        C148   1.260       .  A
C148        C963   1.481       .  S
O149        C154   1.276       .  A
O150        C152   1.274       .  A
C151        O153   1.268   1_554  A
C151        C990   1.489   1_554  S
C152        C953   1.490       .  S
C154        C983   1.496       .  S
Fe155       O171   2.018       .  S
Fe155       O161   2.094   1_565  S
Fe155       O168   2.035       .  S
Fe155       O160   2.023   1_556  S
Fe155       O166   1.910       .  S
Fe156       O159   2.067       .  S
Fe156       O163   2.132       .  S
Fe156       O167   2.092       .  S
Fe156       O172   2.100       .  S
Fe156       O166   1.954       .  S
Fe157       O175   2.099       .  S
Fe157       O162   2.064       .  S
Fe157       O169   2.068   1_565  S
Fe157       O158   2.159   1_556  S
Fe157       O166   1.972       .  S
O158        C165   1.276       .  A
O159        C173   1.271       .  A
O160        C165   1.245       .  A
O161        C164   1.273       .  A
O162        C174   1.278       .  A
O163        C176   1.288       .  A
C164        O169   1.270       .  A
C164        C980   1.486       .  S
C165        C940   1.493       .  S
O167        C170   1.265       .  A
O168        C170   1.258       .  A
C170        C920   1.482       .  S
O171        C176   1.268       .  A
O172        C174   1.283       .  A
C173        O175   1.272       .  A
C173       C1063   1.519   1_565  S
C174        C910   1.491       .  S
C176        C930   1.477       .  S
Fe177       O193   2.033       .  S
Fe177       O183   2.067   1_565  S
Fe177       O190   2.047       .  S
Fe177       O182   2.030       .  S
Fe177       O188   1.906       .  S
Fe178       O181   2.082       .  S
Fe178       O185   2.115       .  S
Fe178       O189   2.097       .  S
Fe178       O194   2.094       .  S
Fe178       O188   1.940       .  S
Fe179       O197   2.075       .  S
Fe179       O184   2.065       .  S
Fe179       O191   2.046   1_565  S
Fe179       O180   2.124       .  S
Fe179       O188   1.961       .  S
O180        C187   1.269       .  A
O181        C195   1.274       .  A
O182        C187   1.250       .  A
O183        C186   1.269       .  A
O184        C196   1.278       .  A
O185        C198   1.278       .  A
C186        O191   1.266       .  A
C186        C960   1.457       .  S
C187        C900   1.492       .  S
O189        C192   1.273       .  A
O190        C192   1.264       .  A
C192        C883   1.490       .  S
O193        C198   1.265       .  A
O194        C196   1.280       .  A
C195        O197   1.270       .  A
C195       C1230   1.484       .  S
C196        C890   1.479       .  S
C198        C943   1.483       .  S
Fe199       O215   2.048       .  S
Fe199       O205   2.058   1_554  S
Fe199       O212   2.074       .  S
Fe199       O204   2.059       .  S
Fe199       O210   1.947       .  S
Fe200       O203   2.069       .  S
Fe200       O207   2.117       .  S
Fe200       O211   2.082       .  S
Fe200       O216   2.091       .  S
Fe200       O210   1.970       .  S
Fe201       O219   2.104       .  S
Fe201       O206   2.086   1_545  S
Fe201       O213   2.085   1_554  S
Fe201       O202   2.114   1_545  S
Fe201       O210   1.968       .  S
O202        C209   1.281       .  A
O203        C217   1.278       .  A
O204        C209   1.271   1_545  A
O205        C208   1.266       .  A
O206        C218   1.269   1_565  A
O207        C220   1.275       .  A
C208        O213   1.269       .  A
C208        C863   1.483       .  S
C209        C870   1.499   1_554  S
O211        C214   1.274       .  A
O212        C214   1.271       .  A
C214        C903   1.497       .  S
O215        C220   1.263       .  A
O216        C218   1.270       .  A
C217        O219   1.284       .  A
C217        C853   1.495       .  S
C218       C1143   1.511   1_545  S
C220        C973   1.506       .  S
Fe221       O237   2.084       .  S
Fe221       O227   2.065       .  S
Fe221       O234   2.066       .  S
Fe221       O226   2.086   1_556  S
Fe221       O232   1.961       .  S
Fe222       O225   2.084       .  S
Fe222       O229   2.059       .  S
Fe222       O233   2.103       .  S
Fe222       O238   2.062       .  S
Fe222       O232   1.981       .  S
Fe223       O241   2.057       .  S
Fe223       O228   2.093       .  S
Fe223       O235   2.100       .  S
Fe223       O224   2.079   1_556  S
Fe223       O232   1.988       .  S
O224        C231   1.273       .  A
O225        C239   1.275       .  A
O226        C231   1.278       .  A
O227        C230   1.266       .  A
O228        C240   1.272       .  A
O229        C242   1.265       .  A
C230        O235   1.270       .  A
C230        C923   1.491       .  S
C231        C880   1.488       .  S
O233        C236   1.275       .  A
O234        C236   1.271       .  A
C236        C873   1.497       .  S
O237        C242   1.273       .  A
O238        C240   1.267       .  A
C239        O241   1.272       .  A
C239        C820   1.478       .  S
C240        C840   1.491       .  S
C242        C830   1.488       .  S
Fe243       O259   2.050       .  S
Fe243       O249   2.045       .  S
Fe243       O256   2.057       .  S
Fe243       O248   2.060   1_545  S
Fe243       O254   1.950       .  S
Fe244       O247   2.052       .  S
Fe244       O251   2.078       .  S
Fe244       O255   2.084       .  S
Fe244       O260   2.080       .  S
Fe244       O254   1.975       .  S
Fe245       O263   2.084       .  S
Fe245       O250   2.062       .  S
Fe245       O257   2.086       .  S
Fe245       O246   2.082   1_545  S
Fe245       O254   1.990       .  S
O246        C253   1.269       .  A
O247        C261   1.262       .  A
O248        C253   1.269       .  A
O249        C252   1.264       .  A
O250        C262   1.272       .  A
O251        C264   1.271       .  A
C252        O257   1.275       .  A
C252        C933   1.490       .  S
C253        C833   1.481       .  S
O255        C258   1.268       .  A
O256        C258   1.264       .  A
C258        C860   1.492       .  S
O259        C264   1.270       .  A
O260        C262   1.276       .  A
C261        O263   1.269       .  A
C261        C810   1.504       .  S
C262       C1050   1.478       .  S
C264       C1000   1.473       .  S
Fe265       O281   2.082       .  S
Fe265       O271   2.052   1_455  S
Fe265       O278   2.064       .  S
Fe265       O270   2.076       .  S
Fe265       O276   1.958       .  S
Fe266       O269   2.084       .  S
Fe266       O273   2.086       .  S
Fe266       O277   2.095       .  S
Fe266       O282   2.077       .  S
Fe266       O276   1.976       .  S
Fe267       O285   2.074   1_455  S
Fe267       O272   2.083       .  S
Fe267       O279   2.089   1_455  S
Fe267       O268   2.075       .  S
Fe267       O276   1.983       .  S
O268        C275   1.271       .  A
O269        C283   1.271       .  A
O270        C275   1.274       .  A
O271        C274   1.265       .  A
O272        C284   1.272       .  A
O273        C286   1.274       .  A
C274        O279   1.271       .  A
C274        C803   1.492       .  S
C275        C783   1.476       .  S
O277        C280   1.270       .  A
O278        C280   1.266       .  A
C280        C770   1.500       .  S
O281        C286   1.275       .  A
O282        C284   1.274       .  A
C283        O285   1.270   1_455  A
C283       C1100   1.486   1_455  S
C284        C760   1.498       .  S
C286        C790   1.490       .  S
Fe287       O303   2.058       .  S
Fe287       O293   2.059   1_556  S
Fe287       O300   2.041       .  S
Fe287       O292   2.065   1_655  S
Fe287       O298   1.947       .  S
Fe288       O291   2.080       .  S
Fe288       O295   2.079       .  S
Fe288       O299   2.096       .  S
Fe288       O304   2.059       .  S
Fe288       O298   1.967       .  S
Fe289       O307   2.071       .  S
Fe289       O294   2.087       .  S
Fe289       O301   2.108   1_556  S
Fe289       O290   2.088   1_655  S
Fe289       O298   1.972       .  S
O290        C297   1.270       .  A
O291        C305   1.274       .  A
O292        C297   1.268       .  A
O293        C296   1.271       .  A
O294        C306   1.274       .  A
O295        C308   1.268       .  A
C296        O301   1.275       .  A
C296        C793   1.496       .  S
C297        C750   1.483       .  S
O299        C302   1.275       .  A
O300        C302   1.268       .  A
C302        C733   1.492       .  S
O303        C308   1.264       .  A
O304        C306   1.268       .  A
C305        O307   1.271       .  A
C305        C850   1.490   1_556  S
C306       C1083   1.478       .  S
C308        C740   1.499       .  S
Fe309       O325   2.022       .  S
Fe309       O315   2.073   1_556  S
Fe309       O322   2.063       .  S
Fe309       O314   2.021       .  S
Fe309       O320   1.950       .  S
Fe310       O313   2.079       .  S
Fe310       O317   2.097       .  S
Fe310       O321   2.098       .  S
Fe310       O326   2.055       .  S
Fe310       O320   1.989       .  S
Fe311       O329   2.077       .  S
Fe311       O316   2.089       .  S
Fe311       O323   2.082   1_556  S
Fe311       O312   2.105       .  S
Fe311       O320   1.992       .  S
O312        C319   1.276       .  A
O313        C327   1.277       .  A
O314        C319   1.261       .  A
O315        C318   1.270       .  A
O316        C328   1.271       .  A
O317        C330   1.267       .  A
C318        O323   1.269       .  A
C318        C773   1.484       .  S
C319        C723   1.495       .  S
O321        C324   1.276       .  A
O322        C324   1.271       .  A
C324        C703   1.498       .  S
O325        C330   1.259       .  A
O326        C328   1.266       .  A
C327        O329   1.276       .  A
C327        C993   1.490       .  S
C328        C713   1.489       .  S
C330        C753   1.489       .  S
Fe331       O347   2.071       .  S
Fe331       O337   2.042   1_455  S
Fe331       O344   2.053       .  S
Fe331       O336   2.077   1_554  S
Fe331       O342   1.941       .  S
Fe332       O335   2.087       .  S
Fe332       O339   2.063       .  S
Fe332       O343   2.104       .  S
Fe332       O348   2.058       .  S
Fe332       O342   1.973       .  S
Fe333       O351   2.051       .  S
Fe333       O338   2.102       .  S
Fe333       O345   2.108   1_455  S
Fe333       O334   2.064   1_554  S
Fe333       O342   1.968       .  S
O334        C341   1.268       .  A
O335        C349   1.272       .  A
O336        C341   1.273       .  A
O337        C340   1.262       .  A
O338        C350   1.278       .  A
O339        C352   1.269       .  A
C340        O345   1.275       .  A
C340        C683   1.483       .  S
C341        C693   1.474       .  S
O343        C346   1.272       .  A
O344        C346   1.264       .  A
C346        C720   1.485       .  S
O347        C352   1.273       .  A
O348        C350   1.272       .  A
C349        O351   1.266       .  A
C349       C1183   1.473       .  S
C350        C913   1.489   1_554  S
C352        C780   1.477       .  S
Fe353       O369   2.064       .  S
Fe353       O359   2.058       .  S
Fe353       O366   2.060       .  S
Fe353       O358   2.056   1_655  S
Fe353       O364   1.960       .  S
Fe354       O357   2.076       .  S
Fe354       O361   2.092       .  S
Fe354       O365   2.095       .  S
Fe354       O370   2.062       .  S
Fe354       O364   1.979       .  S
Fe355       O373   2.070       .  S
Fe355       O360   2.082       .  S
Fe355       O367   2.097       .  S
Fe355       O356   2.091   1_655  S
Fe355       O364   1.981       .  S
O356        C363   1.270       .  A
O357        C371   1.273       .  A
O358        C363   1.264       .  A
O359        C362   1.271       .  A
O360        C372   1.273       .  A
O361        C374   1.269       .  A
C362        O367   1.276       .  A
C362        C730   1.479       .  S
C363        C700   1.499       .  S
O365        C368   1.275       .  A
O366        C368   1.272       .  A
C368        C690   1.482       .  S
O369        C374   1.265       .  A
O370        C372   1.269       .  A
C371        O373   1.271       .  A
C371        C660   1.484       .  S
C372       C1010   1.487       .  S
C374        C670   1.496       .  S
Fe375       O391   2.026       .  S
Fe375       O381   2.039       .  S
Fe375       O388   2.016       .  S
Fe375       O380   2.025   1_554  S
Fe375       O386   1.949       .  S
Fe376       O379   2.084       .  S
Fe376       O383   2.135       .  S
Fe376       O387   2.106       .  S
Fe376       O392   2.097       .  S
Fe376       O386   1.986       .  S
Fe377       O395   2.073       .  S
Fe377       O382   2.079       .  S
Fe377       O389   2.101       .  S
Fe377       O378   2.122   1_554  S
Fe377       O386   1.981       .  S
O378        C385   1.279       .  A
O379        C393   1.272       .  A
O380        C385   1.261       .  A
O381        C384   1.262       .  A
O382        C394   1.275       .  A
O383        C396   1.285       .  A
C384        O389   1.270       .  A
C384        C743   1.488       .  S
C385        C673   1.478       .  S
O387        C390   1.270       .  A
O388        C390   1.257       .  A
C390        C680   1.495       .  S
O391        C396   1.266       .  A
O392        C394   1.279       .  A
C393        O395   1.272       .  A
C393        C650   1.509       .  S
C394        C843   1.504       .  S
C396        C800   1.489       .  S
Fe397       O413   2.071       .  S
Fe397       O403   2.043       .  S
Fe397       O410   2.047       .  S
Fe397       O402   2.059       .  S
Fe397       O408   1.960       .  S
Fe398       O401   2.076       .  S
Fe398       O405   2.083       .  S
Fe398       O409   2.112       .  S
Fe398       O414   2.087       .  S
Fe398       O408   1.982       .  S
Fe399       O417   2.057       .  S
Fe399       O404   2.070       .  S
Fe399       O411   2.076       .  S
Fe399       O400   2.070       .  S
Fe399       O408   1.980       .  S
O400        C407   1.264       .  A
O401        C415   1.266       .  A
O402        C407   1.266       .  A
O403        C406   1.267       .  A
O404        C416   1.272       .  A
O405        C418   1.271       .  A
C406        O411   1.271       .  A
C406        C633   1.467       .  S
C407        C640   1.478       .  S
O409        C412   1.275       .  A
O410        C412   1.263       .  A
C412        C620   1.485       .  S
O413        C418   1.272       .  A
O414        C416   1.280       .  A
C415        O417   1.264       .  A
C415        C653   1.485       .  S
C416        C950   1.509       .  S
C418        C610   1.503       .  S
Fe419       O435   2.052       .  S
Fe419       O425   2.046       .  S
Fe419       O432   2.055       .  S
Fe419       O424   2.050       .  S
Fe419       O430   1.954       .  S
Fe420       O423   2.047       .  S
Fe420       O427   2.093       .  S
Fe420       O431   2.072       .  S
Fe420       O436   2.070       .  S
Fe420       O430   1.986       .  S
Fe421       O439   2.095       .  S
Fe421       O426   2.063       .  S
Fe421       O433   2.089       .  S
Fe421       O422   2.112       .  S
Fe421       O430   1.983       .  S
O422        C429   1.277       .  A
O423        C437   1.267       .  A
O424        C429   1.268       .  A
O425        C428   1.266       .  A
O426        C438   1.269       .  A
O427        C440   1.271       .  A
C428        O433   1.271       .  A
C428        C603   1.490       .  S
C429        C590   1.486       .  S
O431        C434   1.265       .  A
O432        C434   1.267       .  A
C434        C630   1.475       .  S
O435        C440   1.266       .  A
O436        C438   1.270       .  A
C437        O439   1.276       .  A
C437       C1033   1.485       .  S
C438        C893   1.475       .  S
C440        C580   1.478       .  S
Fe441       O457   2.078       .  S
Fe441       O447   2.044       .  S
Fe441       O454   2.043       .  S
Fe441       O446   2.080       .  S
Fe441       O452   1.961       .  S
Fe442       O445   2.080       .  S
Fe442       O449   2.096       .  S
Fe442       O453   2.091       .  S
Fe442       O458   2.090       .  S
Fe442       O452   1.984       .  S
Fe443       O461   2.052       .  S
Fe443       O448   2.077       .  S
Fe443       O455   2.108       .  S
Fe443       O444   2.054       .  S
Fe443       O452   1.975       .  S
O444        C451   1.260       .  A
O445        C459   1.266       .  A
O446        C451   1.270       .  A
O447        C450   1.269       .  A
O448        C460   1.277       .  A
O449        C462   1.275       .  A
C450        O455   1.281       .  A
C450        C560   1.489       .  S
C451        C570   1.498       .  S
O453        C456   1.270       .  A
O454        C456   1.265       .  A
C456        C643   1.484       .  S
O457        C462   1.273       .  A
O458        C460   1.280       .  A
C459        O461   1.261       .  A
C459       C1020   1.506       .  S
C460        C763   1.487       .  S
C462        C593   1.504       .  S
Fe463       O479   2.037       .  S
Fe463       O469   2.064       .  S
Fe463       O476   2.045       .  S
Fe463       O468   2.059       .  S
Fe463       O474   1.964       .  S
Fe464       O467   2.077       .  S
Fe464       O471   2.109       .  S
Fe464       O475   2.092       .  S
Fe464       O480   2.095       .  S
Fe464       O474   1.981       .  S
Fe465       O483   2.065       .  S
Fe465       O470   2.062       .  S
Fe465       O477   2.083       .  S
Fe465       O466   2.083       .  S
Fe465       O474   1.984       .  S
O466        C473   1.272       .  A
O467        C481   1.273       .  A
O468        C473   1.270       .  A
O469        C472   1.266       .  A
O470        C482   1.267       .  A
O471        C484   1.277       .  A
C472        O477   1.266       .  A
C472        C550   1.485       .  S
C473        C543   1.476       .  S
O475        C478   1.270       .  A
O476        C478   1.262       .  A
C478        C563   1.510       .  S
O479        C484   1.265       .  A
O480        C482   1.274       .  A
C481        O483   1.272       .  A
C481        C823   1.483       .  S
C482        C710   1.496       .  S
C484        C600   1.505       .  S
Fe485       O501   2.065       .  S
Fe485       O491   2.032       .  S
Fe485       O498   2.030       .  S
Fe485       O490   2.066       .  S
Fe485       O496   1.967       .  S
Fe486       O489   2.076       .  S
Fe486       O493   2.073       .  S
Fe486       O497   2.100       .  S
Fe486       O502   2.059       .  S
Fe486       O496   1.994       .  S
Fe487       O505   2.057       .  S
Fe487       O492   2.113       .  S
Fe487       O499   2.123       .  S
Fe487       O488   2.075       .  S
Fe487       O496   1.982       .  S
O488        C495   1.266       .  A
O489        C503   1.270       .  A
O490        C495   1.267       .  A
O491        C494   1.265       .  A
O492        C504   1.280       .  A
O493        C506   1.265       .  A
C494        O499   1.281       .  A
C494        C530   1.508       .  S
C495        C623   1.483       .  S
O497        C500   1.274       .  A
O498        C500   1.264       .  A
C500        C573   1.478       .  S
O501        C506   1.267       .  A
O502        C504   1.269       .  A
C503        O505   1.266       .  A
C503        C813   1.482       .  S
C504       C1190   1.503       .  S
C506        C540   1.477       .  S
Fe507       O523   2.056       .  S
Fe507       O513   2.086       .  S
Fe507       O520   2.073       .  S
Fe507       O512   2.047       .  S
Fe507       O518   1.961       .  S
Fe508       O511   2.069       .  S
Fe508       O515   2.089       .  S
Fe508       O519   2.089       .  S
Fe508       O524   2.076       .  S
Fe508       O518   1.989       .  S
Fe509       O527   2.097       .  S
Fe509       O514   2.074       .  S
Fe509       O521   2.061       .  S
Fe509       O510   2.120       .  S
Fe509       O518   1.982       .  S
O510        C517   1.286       .  A
O511        C525   1.275       .  A
O512        C517   1.270       .  A
O513        C516   1.269       .  A
O514        C526   1.266       .  A
O515        C528   1.271       .  A
C516        O521   1.262       .  A
C516        C583   1.491       .  S
C517        C613   1.497       .  S
O519        C522   1.273       .  A
O520        C522   1.272       .  A
C522        C533   1.497       .  S
O523        C528   1.268       .  A
O524        C526   1.267       .  A
C525        O527   1.280       .  A
C525        C663   1.499       .  S
C526       C1123   1.488       .  S
C528        C553   1.493       .  S
C529        C530   1.419       .  A
C529        C534   1.421       .  A
C529       Br536   1.929       .  S
C530        C531   1.421       .  A
C531        C532   1.404       .  A
C531       Br538   1.933       .  S
C532        C533   1.410       .  A
C532       Br537   1.936       .  S
C533        C534   1.414       .  A
C534       Br535   1.920       .  S
C539        C540   1.403       .  A
C539        C544   1.405       .  A
C539       Br546   1.918       .  S
C540        C541   1.408       .  A
C541        C542   1.411       .  A
C541       Br548   1.924       .  S
C542        C543   1.406       .  A
C542       Br547   1.917       .  S
C543        C544   1.410       .  A
C544       Br545   1.931       .  S
C549        C550   1.406       .  A
C549        C554   1.413       .  A
C549       Br556   1.919       .  S
C550        C551   1.401       .  A
C551        C552   1.407       .  A
C551       Br558   1.924       .  S
C552        C553   1.412       .  A
C552       Br557   1.921       .  S
C553        C554   1.417       .  A
C554       Br555   1.930       .  S
C559        C560   1.408       .  A
C559        C564   1.418       .  A
C559       Br566   1.930       .  S
C560        C561   1.410       .  A
C561        C562   1.406       .  A
C561       Br568   1.937       .  S
C562        C563   1.427       .  A
C562       Br567   1.944       .  S
C563        C564   1.427       .  A
C564       Br565   1.933       .  S
C569        C570   1.410       .  A
C569        C574   1.402       .  A
C569       Br576   1.916       .  S
C570        C571   1.427       .  A
C571        C572   1.414       .  A
C571       Br578   1.933       .  S
C572        C573   1.402       .  A
C572       Br577   1.924       .  S
C573        C574   1.405       .  A
C574       Br575   1.925       .  S
C579        C580   1.404       .  A
C579        C584   1.409       .  A
C579       Br586   1.925       .  S
C580        C581   1.406       .  A
C581        C582   1.412       .  A
C581       Br588   1.928       .  S
C582        C583   1.410       .  A
C582       Br587   1.918       .  S
C583        C584   1.417       .  A
C584       Br585   1.930       .  S
C589        C590   1.410       .  A
C589        C594   1.422       .  A
C589       Br596   1.928       .  S
C590        C591   1.404       .  A
C591        C592   1.403       .  A
C591       Br598   1.931       .  S
C592        C593   1.417       .  A
C592       Br597   1.923       .  S
C593        C594   1.421       .  A
C594       Br595   1.926       .  S
C599        C600   1.423       .  A
C599        C604   1.402       .  A
C599       Br606   1.935       .  S
C600        C601   1.422       .  A
C601        C602   1.420       .  A
C601       Br608   1.930       .  S
C602        C603   1.412       .  A
C602       Br607   1.930       .  S
C603        C604   1.406       .  A
C604       Br605   1.928       .  S
C609        C610   1.414       .  A
C609        C614   1.405       .  A
C609       Br616   1.939       .  S
C610        C611   1.421       .  A
C611        C612   1.420       .  A
C611       Br618   1.930       .  S
C612        C613   1.411       .  A
C612       Br617   1.925       .  S
C613        C614   1.420       .  A
C614       Br615   1.937       .  S
C619        C620   1.408       .  A
C619        C624   1.402       .  A
C619       Br626   1.922       .  S
C620        C621   1.413       .  A
C621        C622   1.417       .  A
C621       Br628   1.920       .  S
C622        C623   1.411       .  A
C622       Br627   1.923       .  S
C623        C624   1.409       .  A
C624       Br625   1.930       .  S
C629        C630   1.407       .  A
C629        C634   1.414       .  A
C629       Br636   1.922       .  S
C630        C631   1.402       .  A
C631        C632   1.393       .  A
C631       Br638   1.914       .  S
C632        C633   1.406       .  A
C632       Br637   1.930       .  S
C633        C634   1.413       .  A
C634       Br635   1.925       .  S
C639        C640   1.412       .  A
C639        C644   1.412       .  A
C639       Br646   1.928       .  S
C640        C641   1.406       .  A
C641        C642   1.403       .  A
C641       Br648   1.925       .  S
C642        C643   1.405       .  A
C642       Br647   1.917       .  S
C643        C644   1.410       .  A
C644       Br645   1.924       .  S
C649        C650   1.425       .  A
C649        C654   1.410       .  A
C649       Br656   1.938       .  S
C650        C651   1.425       .  A
C651        C652   1.416       .  A
C651       Br658   1.927       .  S
C652        C653   1.407       .  A
C652       Br657   1.934       .  S
C653        C654   1.406       .  A
C654       Br655   1.933       .  S
C659        C660   1.406       .  A
C659        C664   1.407       .  A
C659       Br666   1.936       .  S
C660        C661   1.413       .  A
C661        C662   1.415       .  A
C661       Br668   1.932       .  S
C662        C663   1.418       .  A
C662       Br667   1.932       .  S
C663        C664   1.421       .  A
C664       Br665   1.931       .  S
C669        C670   1.414       .  A
C669        C674   1.416       .  A
C669       Br676   1.923       .  S
C670        C671   1.416       .  A
C671        C672   1.405       .  A
C671       Br678   1.917       .  S
C672        C673   1.401       .  A
C672       Br677   1.927       .  S
C673        C674   1.412       .  A
C674       Br675   1.924       .  S
C679        C680   1.418       .  A
C679        C684   1.421       .  A
C679       Br686   1.925       .  S
C680        C681   1.413       .  A
C681        C682   1.397       .  A
C681       Br688   1.932   1_554  S
C682        C683   1.408       .  A
C682       Br687   1.930   1_554  S
C683        C684   1.412       .  A
C684       Br685   1.925       .  S
C689        C690   1.410   1_455  A
C689        C694   1.408       .  A
C689       Br696   1.923       .  S
C690        C691   1.408       .  A
C691        C692   1.409       .  A
C691       Br698   1.920       .  S
C692        C693   1.410   1_655  A
C692       Br697   1.931       .  S
C693        C694   1.404       .  A
C694       Br695   1.925       .  S
C699        C700   1.419       .  A
C699        C704   1.420       .  A
C699       Br706   1.931       .  S
C700        C701   1.415       .  A
C701        C702   1.403       .  A
C701       Br708   1.931       .  S
C702        C703   1.412       .  A
C702       Br707   1.931       .  S
C703        C704   1.415       .  A
C704       Br705   1.927       .  S
C709        C710   1.416       .  A
C709        C714   1.405       .  A
C709       Br716   1.930       .  S
C710        C711   1.417       .  A
C711        C712   1.419       .  A
C711       Br718   1.929       .  S
C712        C713   1.412       .  A
C712       Br717   1.925       .  S
C713        C714   1.411       .  A
C714       Br715   1.937       .  S
C719        C720   1.407       .  A
C719        C724   1.397       .  A
C719       Br726   1.928       .  S
C720        C721   1.411   1_554  A
C721        C722   1.421       .  A
C721       Br728   1.924       .  S
C722        C723   1.416       .  A
C722       Br727   1.924       .  S
C723        C724   1.423   1_556  A
C724       Br725   1.949       .  S
C729        C730   1.402       .  A
C729        C734   1.403       .  A
C729       Br736   1.919   1_655  S
C730        C731   1.405       .  A
C731        C732   1.413       .  A
C731       Br738   1.927       .  S
C732        C733   1.421       .  A
C732       Br737   1.930       .  S
C733        C734   1.417       .  A
C734       Br735   1.931   1_655  S
C739        C740   1.425       .  A
C739        C744   1.421       .  A
C739       Br746   1.931       .  S
C740        C741   1.421   1_556  A
C741        C742   1.398       .  A
C741       Br748   1.938       .  S
C742        C743   1.404       .  A
C742       Br747   1.929       .  S
C743        C744   1.408   1_554  A
C744       Br745   1.926       .  S
C749        C750   1.413       .  A
C749        C754   1.419       .  A
C749       Br756   1.916       .  S
C750        C751   1.404       .  A
C751        C752   1.396       .  A
C751       Br758   1.916   1_556  S
C752        C753   1.406       .  A
C752       Br757   1.921   1_556  S
C753        C754   1.413       .  A
C754       Br755   1.925       .  S
C759        C760   1.421       .  A
C759        C764   1.411       .  A
C759       Br766   1.933       .  S
C760        C761   1.417       .  A
C761        C762   1.413       .  A
C761       Br768   1.933       .  S
C762        C763   1.412       .  A
C762       Br767   1.932       .  S
C763        C764   1.408       .  A
C764       Br765   1.932       .  S
C769        C770   1.418       .  A
C769        C774   1.414       .  A
C769       Br776   1.921       .  S
C770        C771   1.416       .  A
C771        C772   1.409       .  A
C771       Br778   1.918       .  S
C772        C773   1.404       .  A
C772       Br777   1.930       .  S
C773        C774   1.402       .  A
C774       Br775   1.920       .  S
C779        C780   1.410       .  A
C779        C784   1.404       .  A
C779       Br786   1.927   1_455  S
C780        C781   1.414       .  A
C781        C782   1.411       .  A
C781       Br788   1.927       .  S
C782        C783   1.403       .  A
C782       Br787   1.921       .  S
C783        C784   1.404       .  A
C784       Br785   1.925   1_455  S
C789        C790   1.416       .  A
C789        C794   1.418       .  A
C789       Br796   1.921       .  S
C790        C791   1.413   1_455  A
C791        C792   1.404       .  A
C791       Br798   1.926       .  S
C792        C793   1.402       .  A
C792       Br797   1.923       .  S
C793        C794   1.410   1_655  A
C794       Br795   1.928       .  S
C799        C800   1.411       .  A
C799        C804   1.419       .  A
C799       Br806   1.918       .  S
C800        C801   1.411       .  A
C801        C802   1.403       .  A
C801       Br808   1.933       .  S
C802        C803   1.417       .  A
C802       Br807   1.941       .  S
C803        C804   1.415       .  A
C804       Br805   1.927       .  S
C809        C810   1.427       .  A
C809        C814   1.408       .  A
C809       Br816   1.941       .  S
C810        C811   1.423       .  A
C811        C812   1.414       .  A
C811       Br818   1.929       .  S
C812        C813   1.407       .  A
C812       Br817   1.933       .  S
C813        C814   1.408       .  A
C814       Br815   1.937       .  S
C819        C820   1.409       .  A
C819        C824   1.405       .  A
C819       Br826   1.934       .  S
C820        C821   1.411       .  A
C821        C822   1.411       .  A
C821       Br828   1.931       .  S
C822        C823   1.415       .  A
C822       Br827   1.932       .  S
C823        C824   1.413       .  A
C824       Br825   1.933       .  S
C829        C830   1.418       .  A
C829        C834   1.407       .  A
C829       Br836   1.929       .  S
C830        C831   1.411       .  A
C831        C832   1.409       .  A
C831       Br838   1.918       .  S
C832        C833   1.408       .  A
C832       Br837   1.931       .  S
C833        C834   1.401       .  A
C834       Br835   1.921       .  S
C839        C840   1.412       .  A
C839        C844   1.410       .  A
C839       Br846   1.935       .  S
C840        C841   1.409   1_556  A
C841        C842   1.418       .  A
C841       Br848   1.929       .  S
C842        C843   1.420       .  A
C842       Br847   1.931       .  S
C843        C844   1.417   1_554  A
C844       Br845   1.930       .  S
C849        C850   1.412       .  A
C849        C854   1.410       .  A
C849       Br856   1.933       .  S
C850        C851   1.414       .  A
C851        C852   1.412       .  A
C851       Br858   1.933       .  S
C852        C853   1.415       .  A
C852       Br857   1.927       .  S
C853        C854   1.416       .  A
C854       Br855   1.933       .  S
C859        C860   1.413       .  A
C859        C864   1.409       .  A
C859       Br866   1.920   1_545  S
C860        C861   1.416       .  A
C861        C862   1.413       .  A
C861       Br868   1.928       .  S
C862        C863   1.406       .  A
C862       Br867   1.921       .  S
C863        C864   1.406       .  A
C864       Br865   1.930   1_545  S
C869        C870   1.416       .  A
C869        C874   1.405       .  A
C869       Br876   1.937       .  S
C870        C871   1.416   1_556  A
C871        C872   1.424       .  A
C871       Br878   1.927       .  S
C872        C873   1.415   1_554  A
C872       Br877   1.926       .  S
C873        C874   1.412       .  A
C874       Br875   1.936       .  S
C879        C880   1.406       .  A
C879        C884   1.403       .  A
C879       Br886   1.930       .  S
C880        C881   1.415       .  A
C881        C882   1.418       .  A
C881       Br888   1.923       .  S
C882        C883   1.412       .  A
C882       Br887   1.926       .  S
C883        C884   1.413       .  A
C884       Br885   1.927       .  S
C889        C890   1.411       .  A
C889        C894   1.408       .  A
C889       Br896   1.931       .  S
C890        C891   1.413       .  A
C891        C892   1.407       .  A
C891       Br898   1.928       .  S
C892        C893   1.408       .  A
C892       Br897   1.930       .  S
C893        C894   1.410       .  A
C894       Br895   1.931       .  S
C899        C900   1.414   1_545  A
C899        C904   1.420       .  A
C899       Br906   1.928       .  S
C900        C901   1.416       .  A
C901        C902   1.396   1_565  A
C901       Br908   1.943       .  S
C902        C903   1.417       .  A
C902       Br907   1.939   1_545  S
C903        C904   1.420       .  A
C904       Br905   1.930       .  S
C909        C910   1.415   1_554  A
C909        C914   1.408       .  A
C909       Br916   1.934       .  S
C910        C911   1.415       .  A
C911        C912   1.414       .  A
C911       Br918   1.932       .  S
C912        C913   1.413       .  A
C912       Br917   1.930       .  S
C913        C914   1.413   1_556  A
C914       Br915   1.936       .  S
C919        C920   1.409       .  A
C919        C924   1.415       .  A
C919       Br926   1.924       .  S
C920        C921   1.407       .  A
C921        C922   1.407       .  A
C921       Br928   1.929   1_556  S
C922        C923   1.408       .  A
C922       Br927   1.914   1_556  S
C923        C924   1.410       .  A
C924       Br925   1.921       .  S
C929        C930   1.409   1_545  A
C929        C934   1.415       .  A
C929       Br936   1.920       .  S
C930        C931   1.408       .  A
C931        C932   1.401       .  A
C931       Br938   1.936       .  S
C932        C933   1.421   1_565  A
C932       Br937   1.941       .  S
C933        C934   1.413       .  A
C934       Br935   1.925       .  S
C939        C940   1.415       .  A
C939        C944   1.422       .  A
C939       Br946   1.924       .  S
C940        C941   1.422       .  A
C941        C942   1.397       .  A
C941       Br948   1.941       .  S
C942        C943   1.410       .  A
C942       Br947   1.944       .  S
C943        C944   1.413       .  A
C944       Br945   1.926       .  S
C949        C950   1.423       .  A
C949        C954   1.411       .  A
C949       Br956   1.936       .  S
C950        C951   1.430       .  A
C951        C952   1.412       .  A
C951       Br958   1.937       .  S
C952        C953   1.404       .  A
C952       Br957   1.930       .  S
C953        C954   1.408       .  A
C954       Br955   1.923       .  S
C959        C960   1.397       .  A
C959        C964   1.398       .  A
C959       Br966   1.935       .  S
C960        C961   1.407       .  A
C961        C962   1.409       .  A
C961       Br968   1.931       .  S
C962        C963   1.415       .  A
C962       Br967   1.928       .  S
C963        C964   1.415       .  A
C964       Br965   1.911       .  S
C969        C970   1.401       .  A
C969        C974   1.414       .  A
C969       Br976   1.916       .  S
C970        C971   1.404       .  A
C971        C972   1.411       .  A
C971       Br978   1.931   1_554  S
C972        C973   1.420       .  A
C972       Br977   1.923   1_554  S
C973        C974   1.422       .  A
C974       Br975   1.927       .  S
C979        C980   1.408       .  A
C979        C984   1.405       .  A
C979       Br986   1.931       .  S
C980        C981   1.412   1_556  A
C981        C982   1.416       .  A
C981       Br988   1.929       .  S
C982        C983   1.418       .  A
C982       Br987   1.929       .  S
C983        C984   1.416   1_554  A
C984       Br985   1.929       .  S
C989        C990   1.412       .  A
C989        C994   1.409       .  A
C989       Br996   1.932       .  S
C990        C991   1.414       .  A
C991        C992   1.412       .  A
C991       Br998   1.933       .  S
C992        C993   1.416       .  A
C992       Br997   1.934       .  S
C993        C994   1.415       .  A
C994       Br995   1.934       .  S
C999       C1000   1.405       .  A
C999       C1004   1.397       .  A
C999      Br1006   1.939       .  S
C1000      C1001   1.412       .  A
C1001      C1002   1.416       .  A
C1001     Br1008   1.927       .  S
C1002      C1003   1.410       .  A
C1002     Br1007   1.927       .  S
C1003      C1004   1.416       .  A
C1004     Br1005   1.934       .  S
C1009      C1010   1.409   1_455  A
C1009      C1014   1.413       .  A
C1009     Br1016   1.933       .  S
C1010      C1011   1.412       .  A
C1011      C1012   1.411       .  A
C1011     Br1018   1.935       .  S
C1012      C1013   1.419   1_655  A
C1012     Br1017   1.935       .  S
C1013      C1014   1.423       .  A
C1014     Br1015   1.933       .  S
C1019      C1020   1.421       .  A
C1019      C1024   1.407       .  A
C1019     Br1026   1.938       .  S
C1020      C1021   1.425       .  A
C1021      C1022   1.418       .  A
C1021     Br1028   1.933       .  S
C1022      C1023   1.410       .  A
C1022     Br1027   1.929       .  S
C1023      C1024   1.410       .  A
C1024     Br1025   1.931       .  S
C1029      C1030   1.416       .  A
C1029      C1034   1.406       .  A
C1029     Br1036   1.936       .  S
C1030      C1031   1.415       .  A
C1031      C1032   1.414       .  A
C1031     Br1038   1.931       .  S
C1032      C1033   1.411       .  A
C1032     Br1037   1.930       .  S
C1033      C1034   1.414       .  A
C1034     Br1035   1.938       .  S
C1039      C1040   1.407       .  A
C1039      C1044   1.402       .  A
C1039     Br1046   1.940       .  S
C1040      C1041   1.412       .  A
C1041      C1042   1.419       .  A
C1041     Br1048   1.927       .  S
C1042      C1043   1.418       .  A
C1042     Br1047   1.930       .  S
C1043      C1044   1.424       .  A
C1044     Br1045   1.936       .  S
C1049      C1050   1.411       .  A
C1049      C1054   1.410       .  A
C1049     Br1056   1.931       .  S
C1050      C1051   1.409       .  A
C1051      C1052   1.405       .  A
C1051     Br1058   1.934       .  S
C1052      C1053   1.416   1_545  A
C1052     Br1057   1.931   1_545  S
C1053      C1054   1.414   1_565  A
C1054     Br1055   1.932   1_545  S
C1059      C1060   1.407       .  A
C1059      C1064   1.416       .  A
C1059     Br1066   1.934       .  S
C1060      C1061   1.404       .  A
C1061      C1062   1.416       .  A
C1061     Br1068   1.933       .  S
C1062      C1063   1.429       .  A
C1062     Br1067   1.931   1_545  S
C1063      C1064   1.429       .  A
C1064     Br1065   1.935       .  S
C1069      C1070   1.408       .  A
C1069      C1074   1.406       .  A
C1069     Br1076   1.933   1_455  S
C1070      C1071   1.405       .  A
C1071      C1072   1.408       .  A
C1071     Br1078   1.920       .  S
C1072      C1073   1.409       .  A
C1072     Br1077   1.925       .  S
C1073      C1074   1.408       .  A
C1074     Br1075   1.918   1_455  S
C1079      C1080   1.427       .  A
C1079      C1084   1.410       .  A
C1079     Br1086   1.935   1_655  S
C1080      C1081   1.425       .  A
C1081      C1082   1.410       .  A
C1081     Br1088   1.936       .  S
C1082      C1083   1.403       .  A
C1082     Br1087   1.931       .  S
C1083      C1084   1.404       .  A
C1084     Br1085   1.930       .  S
C1089      C1090   1.403       .  A
C1089      C1094   1.407       .  A
C1089     Br1096   1.926       .  S
C1090      C1091   1.404   1_545  A
C1091      C1092   1.414       .  A
C1091     Br1098   1.921       .  S
C1092      C1093   1.419       .  A
C1092     Br1097   1.927       .  S
C1093      C1094   1.411   1_565  A
C1094     Br1095   1.915       .  S
C1099      C1100   1.407       .  A
C1099      C1104   1.413       .  A
C1099     Br1106   1.931   1_655  S
C1100      C1101   1.407       .  A
C1101      C1102   1.415       .  A
C1101     Br1108   1.931       .  S
C1102      C1103   1.424       .  A
C1102     Br1107   1.932       .  S
C1103      C1104   1.421       .  A
C1104     Br1105   1.933       .  S
C1109      C1110   1.405       .  A
C1109      C1114   1.405       .  A
C1109     Br1116   1.930       .  S
C1110      C1111   1.402       .  A
C1111      C1112   1.412       .  A
C1111     Br1118   1.926       .  S
C1112      C1113   1.425       .  A
C1112     Br1117   1.935       .  S
C1113      C1114   1.410       .  A
C1114     Br1115   1.914       .  S
C1119      C1120   1.419       .  A
C1119      C1124   1.419       .  A
C1119     Br1126   1.929       .  S
C1120      C1121   1.428       .  A
C1121      C1122   1.408       .  A
C1121     Br1128   1.932       .  S
C1122      C1123   1.399       .  A
C1122     Br1127   1.927       .  S
C1123      C1124   1.412       .  A
C1124     Br1125   1.927       .  S
C1129      C1130   1.417       .  A
C1129      C1134   1.421       .  A
C1129     Br1136   1.929       .  S
C1130      C1131   1.415       .  A
C1131      C1132   1.403       .  A
C1131     Br1138   1.940       .  S
C1132      C1133   1.415       .  A
C1132     Br1137   1.938       .  S
C1133      C1134   1.412       .  A
C1134     Br1135   1.927       .  S
C1139      C1140   1.416       .  A
C1139      C1144   1.421       .  A
C1139     Br1146   1.931       .  S
C1140      C1141   1.415       .  A
C1141      C1142   1.416       .  A
C1141     Br1148   1.930       .  S
C1142      C1143   1.418       .  A
C1142     Br1147   1.932       .  S
C1143      C1144   1.418       .  A
C1144     Br1145   1.930       .  S
C1149      C1150   1.414       .  A
C1149      C1154   1.403       .  A
C1149     Br1156   1.930   1_565  S
C1150      C1151   1.423       .  A
C1151      C1152   1.420       .  A
C1151     Br1158   1.930       .  S
C1152      C1153   1.410       .  A
C1152     Br1157   1.928       .  S
C1153      C1154   1.406       .  A
C1154     Br1155   1.921   1_565  S
C1159      C1160   1.417   1_655  A
C1159      C1164   1.421   1_655  A
C1159     Br1166   1.933       .  S
C1160      C1161   1.421       .  A
C1161      C1162   1.410       .  A
C1161     Br1168   1.941       .  S
C1162      C1163   1.428       .  A
C1162     Br1167   1.946       .  S
C1163      C1164   1.425       .  A
C1164     Br1165   1.937   1_455  S
C1169      C1170   1.402       .  A
C1169      C1174   1.400       .  A
C1169     Br1176   1.904   1_655  S
C1170      C1171   1.408       .  A
C1171      C1172   1.411       .  A
C1171     Br1178   1.923       .  S
C1172      C1173   1.407       .  A
C1172     Br1177   1.922       .  S
C1173      C1174   1.404       .  A
C1174     Br1175   1.932       .  S
C1179      C1180   1.424       .  A
C1179      C1184   1.409       .  A
C1179     Br1186   1.934       .  S
C1180      C1181   1.422       .  A
C1181      C1182   1.410       .  A
C1181     Br1188   1.933   1_455  S
C1182      C1183   1.404       .  A
C1182     Br1187   1.932       .  S
C1183      C1184   1.405       .  A
C1184     Br1185   1.935       .  S
C1189      C1190   1.413       .  A
C1189      C1194   1.418       .  A
C1189     Br1196   1.932       .  S
C1190      C1191   1.419       .  A
C1191      C1192   1.414       .  A
C1191     Br1198   1.931       .  S
C1192      C1193   1.410       .  A
C1192     Br1197   1.924       .  S
C1193      C1194   1.422       .  A
C1194     Br1195   1.933       .  S
C1199      C1200   1.424       .  A
C1199      C1204   1.408       .  A
C1199     Br1206   1.938       .  S
C1200      C1201   1.417       .  A
C1201      C1202   1.422       .  A
C1201     Br1208   1.929       .  S
C1202      C1203   1.414       .  A
C1202     Br1207   1.922       .  S
C1203      C1204   1.414       .  A
C1204     Br1205   1.941       .  S
C1209      C1210   1.419       .  A
C1209      C1214   1.419       .  A
C1209     Br1216   1.929       .  S
C1210      C1211   1.415       .  A
C1211      C1212   1.405       .  A
C1211     Br1218   1.931   1_545  S
C1212      C1213   1.410       .  A
C1212     Br1217   1.931   1_545  S
C1213      C1214   1.410       .  A
C1214     Br1215   1.929       .  S
C1219      C1220   1.415   1_565  A
C1219      C1224   1.413       .  A
C1219     Br1226   1.919       .  S
C1220      C1221   1.421       .  A
C1221      C1222   1.415       .  A
C1221     Br1228   1.931       .  S
C1222      C1223   1.405   1_545  A
C1222     Br1227   1.913       .  S
C1223      C1224   1.403       .  A
C1224     Br1225   1.927       .  S
C1229      C1230   1.415   1_545  A
C1229      C1234   1.405       .  A
C1229     Br1236   1.924       .  S
C1230      C1231   1.411       .  A
C1231      C1232   1.412       .  A
C1231     Br1238   1.930       .  S
C1232      C1233   1.412   1_565  A
C1232     Br1237   1.928       .  S
C1233      C1234   1.407       .  A
C1234     Br1235   1.936       .  S
C1239      C1240   1.410       .  A
C1239      C1244   1.407       .  A
C1239     Br1246   1.920       .  S
C1240      C1241   1.422       .  A
C1241      C1242   1.411       .  A
C1241     Br1248   1.932       .  S
C1242      C1243   1.402       .  A
C1242     Br1247   1.922       .  S
C1243      C1244   1.405       .  A
C1244     Br1245   1.925       .  S
