geometry optimzed in LAMMPS
_audit_creation_date              2020-12-01 
_audit_creation_method            'lammps2cif' 
_symmetry_space_group_name_H-M    'P1' 
_symmetry_Int_Tables_number       1 
_symmetry_cell_setting            triclinic 
loop_ 
_symmetry_equiv_pos_as_xyz 
  x,y,z 
_cell_length_a                    43.97871103 
_cell_length_b                    44.02859275569675 
_cell_length_c                    44.02025572271037 
_cell_angle_alpha                 90.0057710526018 
_cell_angle_beta                  89.99257828726904 
_cell_angle_gamma                 89.98945488414316 
loop_ 
_atom_site_label 
_atom_site_type_symbol 
_atom_site_fract_x 
_atom_site_fract_y 
_atom_site_fract_z 
_atom_site_charge 
N1          N  0.99841402  0.21813564  0.54788856    -0.35200
N2          N  0.95444029  0.22483658  0.49876459    -0.55800
N3          N  0.00433829  0.22984315  0.45540075    -0.35200
N4          N  0.04824122  0.22574112  0.50495147    -0.55800
C5          C  0.97262834  0.22295867  0.56401427     0.28400
C6          C  0.02209286  0.22186261  0.56718785     0.28400
C7          C  0.98040401  0.23640964  0.43714937     0.28400
C8          C  0.02994751  0.23876488  0.44075250     0.28400
C9          C  0.93503246  0.21859301  0.52179278     0.37000
C10         C  0.93818094  0.22299992  0.47274472     0.37000
C11         C  0.06462862  0.21830706  0.52988066     0.37000
C12         C  0.06785183  0.22629926  0.48127336     0.37000
C13         C  0.98006467  0.22945356  0.59396065    -0.20500
C14         C  0.01120615  0.22868021  0.59597291    -0.20500
C15         C  0.99097357  0.24915134  0.41033605    -0.20500
C16         C  0.02213651  0.25073055  0.41263755    -0.20500
C17         C  0.90619492  0.21303990  0.51039271    -0.21500
C18         C  0.90819681  0.21573739  0.47932984    -0.21500
C19         C  0.09487790  0.21418038  0.52202205    -0.21500
C20         C  0.09693857  0.21934522  0.49126356    -0.21500
C21         C  0.94254887  0.22000651  0.55300071    -0.16900
C22         C  0.05319058  0.21809120  0.55992623    -0.16900
C23         C  0.06023614  0.23501928  0.45125201    -0.16900
C24         C  0.94941534  0.23011420  0.44344495    -0.16900
H25         H  0.96466156  0.23408619  0.61257003     0.16000
H26         H  0.02432078  0.23270798  0.61638183     0.16000
H27         H  0.97762817  0.25656075  0.39105379     0.16000
H28         H  0.03731771  0.25948131  0.39537888     0.16000
H29         H  0.88577748  0.20796047  0.52314757     0.14300
H30         H  0.88956318  0.21322244  0.46346829     0.14300
H31         H  0.11362431  0.20875512  0.53700066     0.14300
H32         H  0.11755971  0.21848304  0.47786743     0.14300
H33         H  0.99971057  0.20958118  0.52596072     0.27600
H34         H  0.00340351  0.21720138  0.47523812     0.27600
O35         O  0.25178919  0.26871243  0.19564992    -0.86900
C36         C  0.32048660  0.25893343  0.25763456     0.89100
Mg37       Mg  0.21228270  0.29674181  0.20346421     1.58100
O38         O  0.27159741  0.19584339  0.25071761    -0.86700
O39         O  0.26377449  0.22204223  0.18356753    -0.74000
C40         C  0.16379714  0.25757141  0.34144994     0.94100
O41         O  0.27581309  0.31786933  0.24368774    -0.73800
O42         O  0.16427335  0.28086167  0.32426487    -0.81300
Mg43       Mg  0.29534128  0.28966260  0.20419309     1.58000
C44         C  0.23861750  0.15577292  0.33092700     0.94100
O45         O  0.31953638  0.26656081  0.16402844    -0.79600
H46         H  0.25204687  0.16357368  0.22545722    -0.04900
C47         C  0.25154462  0.25454125  0.32059536     0.89000
O48         O  0.18387717  0.25549798  0.21793340    -0.74100
O49         O  0.30657303  0.25252271  0.23412274    -0.86900
O50         O  0.26355087  0.16172383  0.31750731    -0.79700
C51         C  0.34708789  0.17152152  0.26669761     0.94200
C52         C  0.33560003  0.24313097  0.15855730     0.94000
Mg53       Mg  0.20411979  0.21104682  0.29586886     1.58000
O54         O  0.17957596  0.23395386  0.33596228    -0.79600
O55         O  0.22374508  0.18306146  0.25623179    -0.73800
O56         O  0.34365575  0.18588359  0.24168981    -0.79700
O57         O  0.28412927  0.32866765  0.17224444    -0.81400
O58         O  0.15620586  0.31426222  0.25890967    -0.79700
C59         C  0.24954067  0.17996759  0.24357274     0.88500
O60         O  0.19319845  0.24818467  0.26613454    -0.86800
O61         O  0.24776982  0.23181796  0.30457542    -0.86900
O62         O  0.23636142  0.27871284  0.31639042    -0.74000
Mg63       Mg  0.30313056  0.20738183  0.21482544     1.58000
O64         O  0.32823178  0.17363579  0.28848085    -0.81400
H65         H  0.23132055  0.24650965  0.16173075    -0.05100
O66         O  0.22806289  0.30478647  0.24931962    -0.86600
H67         H  0.24734625  0.33749836  0.27421814    -0.04900
H68         H  0.16306892  0.22307821  0.24323535    -0.05100
C69         C  0.24998500  0.32092868  0.25628197     0.88400
C70         C  0.24835069  0.24608112  0.17943421     0.89000
C71         C  0.17912523  0.24166362  0.24276114     0.89100
H72         H  0.26874292  0.25409252  0.33813569    -0.05100
O73         O  0.31567632  0.24487215  0.28234528    -0.74100
Mg74       Mg  0.19683247  0.29326972  0.28541181     1.58000
H75         H  0.33652055  0.27754314  0.25737250    -0.05100
C76         C  0.26034662  0.34473203  0.16901627     0.94100
O77         O  0.17097562  0.32642788  0.21188725    -0.81300
C78         C  0.15236389  0.32842756  0.23389644     0.94100
O79         O  0.33577852  0.22001014  0.17600843    -0.81300
Mg80       Mg  0.28709691  0.20359789  0.29671074     1.58200
O81         O  0.23546991  0.33860428  0.18244311    -0.79700
O82         O  0.21496197  0.17199121  0.32768233    -0.81400
O83         O  0.76434976  0.24603071  0.69396835    -0.86900
C84         C  0.75212480  0.17973890  0.75809229     0.89100
Mg85       Mg  0.79634132  0.28278911  0.69917303     1.58100
O86         O  0.69323548  0.23396351  0.75534893    -0.86700
O87         O  0.71556079  0.23936721  0.68641578    -0.74000
C88         C  0.77155381  0.33588721  0.83868830     0.94100
O89         O  0.81376245  0.21809747  0.73970168    -0.73800
O90         O  0.79315850  0.33312810  0.81966181    -0.81300
Mg91       Mg  0.78132495  0.20085413  0.70262524     1.58000
C92         C  0.66233530  0.27128191  0.83752994     0.94100
O93         O  0.75338465  0.17812266  0.66480281    -0.79600
H94         H  0.66082276  0.25600467  0.73237853    -0.04900
C95         C  0.75877422  0.24867934  0.81995196     0.89000
O96         O  0.75856455  0.31463620  0.71616240    -0.74100
O97         O  0.74543420  0.19433537  0.73509613    -0.86900
O98         O  0.66489802  0.24550161  0.82456423    -0.79700
C99         C  0.66569323  0.15948491  0.77359915     0.94200
C100        C  0.72796884  0.16466805  0.66161860     0.94000
Mg101      Mg  0.71808104  0.29970578  0.79780750     1.58000
O102        O  0.74630125  0.32210129  0.83566650    -0.79600
O103        O  0.68525460  0.28276619  0.76087510    -0.73800
O104        O  0.67803439  0.16314046  0.74763166    -0.79700
O105        O  0.81934204  0.20718895  0.66839070    -0.81400
O106        O  0.82072831  0.33802033  0.75206364    -0.79700
C107        C  0.67881338  0.25723646  0.74906902     0.88500
O108        O  0.75363655  0.30652790  0.76495433    -0.86800
O109        O  0.73511488  0.25443516  0.80592058    -0.86900
O110        O  0.78385158  0.26148950  0.81347033    -0.74000
Mg111      Mg  0.69962261  0.20172147  0.71905685     1.58000
O112        O  0.66939383  0.17828007  0.79529607    -0.81400
H113        H  0.74143584  0.26867753  0.66195975    -0.05100
O114        O  0.80587269  0.26697083  0.74471386    -0.86600
H115        H  0.83805040  0.24506149  0.76811513    -0.04900
H116        H  0.72951825  0.33822431  0.74312593    -0.05100
C117        C  0.82019226  0.24372186  0.75129265     0.88400
C118        C  0.74076783  0.25185271  0.67983548     0.89000
C119        C  0.74672506  0.32073674  0.74175787     0.89100
H120        H  0.75827670  0.23172750  0.83771095    -0.05100
O121        O  0.74032456  0.18568289  0.78371957    -0.74100
Mg122      Mg  0.79952864  0.29931778  0.78084826     1.58000
H123        H  0.76911592  0.16205969  0.75652665    -0.05100
C124        C  0.83757752  0.22900474  0.66338203     0.94100
O125        O  0.82949527  0.32240293  0.70457203    -0.81300
C126        C  0.83304981  0.34145592  0.72605049     0.94100
O127        O  0.70615872  0.16789966  0.68033521    -0.81300
Mg128      Mg  0.70286896  0.21774925  0.80081475     1.58200
O129        O  0.83462590  0.25496353  0.67591830    -0.79700
O130        O  0.68060170  0.29305667  0.83251181    -0.81400
N131        N  0.50336094  0.04520788  0.27088133    -0.35200
N132        N  0.54759198  0.99557149  0.27061479    -0.55800
N133        N  0.49834823  0.95222550  0.28050394    -0.35200
N134        N  0.45369329  0.00142686  0.27740996    -0.55800
C135        C  0.52847725  0.06047465  0.26151905     0.28400
C136        C  0.47911901  0.06386242  0.26717343     0.28400
C137        C  0.52197346  0.93290807  0.27652066     0.28400
C138        C  0.47245260  0.93580282  0.27790394     0.28400
C139        C  0.56714546  0.01922304  0.26861638     0.37000
C140        C  0.56456423  0.97051261  0.27608657     0.37000
C141        C  0.43725498  0.02731613  0.28001520     0.37000
C142        C  0.43452503  0.97802158  0.28307942     0.37000
C143        C  0.52007943  0.08941753  0.25229723    -0.20500
C144        C  0.48908733  0.09158362  0.25593885    -0.20500
C145        C  0.51098964  0.90375569  0.27183124    -0.20500
C146        C  0.47983180  0.90557805  0.27258280    -0.20500
C147        C  0.59674640  0.00901605  0.27235215    -0.21500
C148        C  0.59510373  0.97824087  0.27720523    -0.21500
C149        C  0.40732405  0.02024786  0.28704320    -0.21500
C150        C  0.40558380  0.98908216  0.28888157    -0.21500
C151        C  0.55892659  0.04966080  0.26212818    -0.16900
C152        C  0.44835330  0.05707241  0.27431304    -0.16900
C153        C  0.44238480  0.94680301  0.28163227    -0.16900
C154        C  0.55319435  0.94049564  0.27807935    -0.16900
H155        H  0.53476817  0.10726572  0.24391240     0.16000
H156        H  0.47544414  0.11136878  0.25072769     0.16000
H157        H  0.52405572  0.88324218  0.26817217     0.16000
H158        H  0.46440491  0.88664183  0.26973862     0.16000
H159        H  0.61741761  0.02232811  0.27156671     0.14300
H160        H  0.61427063  0.96320911  0.28065702     0.14300
H161        H  0.38857481  0.03588131  0.29009466     0.14300
H162        H  0.38528783  0.97605460  0.29374663     0.14300
H163        H  0.50306516  0.02437308  0.28183202     0.27600
H164        H  0.49993760  0.97457113  0.28778401     0.27600
O165        O  0.73324301  0.80523586  0.25872110    -0.86900
C166        C  0.74884389  0.73831823  0.32042621     0.89100
Mg167      Mg  0.70065842  0.79989573  0.22249342     1.58100
O168        O  0.80632686  0.74722775  0.26545874    -0.86700
O169        O  0.78156103  0.81525381  0.26500754    -0.74000
C170        C  0.73031106  0.66430660  0.16025747     0.94100
O171        O  0.68623693  0.75655872  0.28510612    -0.73800
O172        O  0.70777434  0.68190742  0.16506998    -0.81300
Mg173      Mg  0.71743799  0.79426583  0.30382569     1.58000
C174        C  0.84223933  0.67004396  0.22312559     0.94100
O175        O  0.74463756  0.83233923  0.32808097    -0.79600
H176        H  0.83683590  0.77319620  0.24405794    -0.04900
C177        C  0.74481008  0.67937777  0.24777057     0.89000
O178        O  0.73823197  0.78665914  0.18874593    -0.74100
O179        O  0.75469394  0.76290426  0.30818451    -0.86900
O180        O  0.83841775  0.68142796  0.24944392    -0.79700
C181        C  0.83713295  0.72550770  0.33755498     0.94200
C182        C  0.77030415  0.83607809  0.34104771     0.94000
Mg183      Mg  0.78307796  0.70662223  0.19726143     1.58000
O184        O  0.75613991  0.66841117  0.17282062    -0.79600
O185        O  0.81377784  0.74454025  0.21624956    -0.73800
O186        O  0.82377951  0.75122283  0.33646183    -0.79700
O187        O  0.67772157  0.82718593  0.29954832    -0.81400
O188        O  0.67607169  0.74875049  0.16519392    -0.79700
C189        C  0.81988142  0.75550862  0.24226892     0.88500
O190        O  0.74542159  0.73759998  0.19296723    -0.86800
O191        O  0.76724911  0.69532215  0.24226279    -0.86900
O192        O  0.71894510  0.68511644  0.23633633    -0.74000
Mg193      Mg  0.79967424  0.78122273  0.30032663     1.58000
O194        O  0.83310924  0.70508997  0.31754062    -0.81400
H195        H  0.75379842  0.83970067  0.23745485    -0.05100
O196        O  0.69399054  0.75320549  0.23601278    -0.86600
H197        H  0.66304926  0.72780247  0.25748701    -0.04900
H198        H  0.76758021  0.76280434  0.16237466    -0.05100
C199        C  0.68020427  0.74530365  0.25919044     0.88400
C200        C  0.75582294  0.82100832  0.25325112     0.89000
C201        C  0.75086617  0.76209900  0.18037187     0.89100
H202        H  0.74705660  0.66060652  0.26344101    -0.05100
O203        O  0.76140926  0.71373522  0.31201283    -0.74100
Mg204      Mg  0.70060005  0.71902643  0.20119882     1.58000
H205        H  0.73181621  0.73756819  0.33812642    -0.05100
C206        C  0.65861515  0.83100651  0.27820671     0.94100
O207        O  0.66645546  0.79482986  0.18415016    -0.81300
C208        C  0.66241895  0.77431092  0.16423410     0.94100
O209        O  0.79265281  0.81817913  0.33657111    -0.81300
Mg210      Mg  0.79939891  0.70047376  0.27873327     1.58200
O211        O  0.66186744  0.81900837  0.25208587    -0.79700
O212        O  0.82342431  0.67416885  0.20154591    -0.81400
N213        N  0.95192782  0.71772115  0.49939418    -0.35200
N214        N  0.99617271  0.72716798  0.54803930    -0.55800
N215        N  0.04540888  0.72227985  0.50397283    -0.35200
N216        N  0.00092603  0.71560320  0.45496820    -0.55800
C217        C  0.93321686  0.72524479  0.52262279     0.28400
C218        C  0.93569070  0.72034207  0.47337471     0.28400
C219        C  0.06104523  0.73245913  0.52851351     0.28400
C220        C  0.06373671  0.72532622  0.47940074     0.28400
C221        C  0.97083543  0.72386176  0.56513507     0.37000
C222        C  0.01999108  0.72760230  0.56748157     0.37000
C223        C  0.97726476  0.70944614  0.43626706     0.37000
C224        C  0.02663142  0.71073883  0.43877786     0.37000
C225        C  0.90461276  0.73219455  0.51128738    -0.20500
C226        C  0.90618087  0.72916832  0.48027853    -0.20500
C227        C  0.08986595  0.74151466  0.51945219    -0.20500
C228        C  0.09157771  0.73698148  0.48857268    -0.20500
C229        C  0.97858215  0.72234565  0.59563614    -0.21500
C230        C  0.00969842  0.72479055  0.59712544    -0.21500
C231        C  0.98798541  0.70077436  0.40796187    -0.21500
C232        C  0.01921480  0.70152491  0.40955974    -0.21500
C233        C  0.94074290  0.72475102  0.55385419    -0.16900
C234        C  0.94622740  0.71373165  0.44370058    -0.16900
C235        C  0.05652078  0.71699475  0.44909730    -0.16900
C236        C  0.05061594  0.73263933  0.55902744    -0.16900
H237        H  0.88461203  0.73877331  0.52402116     0.16000
H238        H  0.88757562  0.73292869  0.46463390     0.16000
H239        H  0.10789776  0.75041073  0.53361961     0.16000
H240        H  0.11115480  0.74180582  0.47447761     0.16000
H241        H  0.96336488  0.72031631  0.61485705     0.14300
H242        H  0.02316057  0.72488761  0.61770714     0.14300
H243        H  0.97469573  0.69498284  0.38809530     0.14300
H244        H  0.03467618  0.69649334  0.39110140     0.14300
H245        H  0.97345424  0.70833334  0.50152007     0.27600
H246        H  0.02462621  0.71116870  0.50435369     0.27600
O247        O  0.30476425  0.77123502  0.75397968    -0.86900
C248        C  0.24187462  0.75374834  0.81954321     0.89100
Mg249      Mg  0.29534447  0.80077169  0.71616179     1.58100
O250        O  0.25376399  0.69379459  0.76779710    -0.86700
O251        O  0.31952178  0.72462248  0.76281395    -0.74000
C252        C  0.16054290  0.75535051  0.66261653     0.94100
O253        O  0.25283665  0.81555964  0.77962600    -0.73800
O254        O  0.17623063  0.77958430  0.66485305    -0.81300
Mg255      Mg  0.29381652  0.78896360  0.79833592     1.58000
C256        C  0.17587976  0.65018746  0.73128393     0.94100
O257        O  0.33492319  0.76737507  0.82238601    -0.79600
H258        H  0.28145124  0.66420918  0.74725326    -0.04900
C259        C  0.18006333  0.74817050  0.74971787     0.89000
O260        O  0.28409852  0.76012856  0.68542413    -0.74100
O261        O  0.26622129  0.74955256  0.80619346    -0.86900
O262        O  0.18849067  0.65532447  0.75687697    -0.79700
C263        C  0.23785465  0.66677363  0.84230802     0.94200
C264        C  0.34153883  0.74333917  0.83701596     0.94000
Mg265      Mg  0.20867866  0.70930111  0.70056720     1.58000
O266        O  0.16748559  0.73108640  0.67673785    -0.79600
O267        O  0.24979839  0.68289243  0.71938046    -0.73800
O268        O  0.26205715  0.68245239  0.83935928    -0.79700
O269        O  0.32332782  0.83021546  0.79024597    -0.81400
O270        O  0.23980370  0.81667592  0.65999514    -0.79700
C271        C  0.26229844  0.67946941  0.74518821     0.88500
O272        O  0.23617230  0.74888299  0.69265480    -0.86800
O273        O  0.19774330  0.72691886  0.74489180    -0.86900
O274        O  0.18302979  0.77359148  0.73645336    -0.74000
Mg275      Mg  0.28845548  0.70612900  0.80058826     1.58000
O276        O  0.21643665  0.66718094  0.82294588    -0.81400
H277        H  0.34036472  0.75265810  0.73270553    -0.05100
O278        O  0.24867226  0.80434086  0.73134044    -0.86600
H279        H  0.22126648  0.83430302  0.75170823    -0.04900
H280        H  0.26187661  0.72709875  0.66219372    -0.05100
C281        C  0.24029745  0.81890322  0.75384224     0.88400
C282        C  0.32245177  0.74993992  0.74930651     0.89000
C283        C  0.26046189  0.74481040  0.67914804     0.89100
H284        H  0.16216915  0.74533742  0.76631849    -0.05100
O285        O  0.21825519  0.73841897  0.81324191    -0.74100
Mg286      Mg  0.21387287  0.79230874  0.69872505     1.58000
H287        H  0.24039826  0.77157298  0.83637378    -0.05100
C288        C  0.32604285  0.84794455  0.76767138     0.94100
O289        O  0.28551690  0.83174199  0.67626916    -0.81300
C290        C  0.26386308  0.83260195  0.65716952     0.94100
O291        O  0.32583262  0.71910757  0.83482986    -0.81300
Mg292      Mg  0.20692420  0.69758882  0.78274479     1.58200
O293        O  0.31318813  0.84284642  0.74222976    -0.79700
O294        O  0.17913739  0.66781179  0.70866824    -0.81400
N295        N  0.49601700  0.95295969  0.76552813    -0.35200
N296        N  0.45300582  0.00275426  0.77488097    -0.55800
N297        N  0.50339876  0.04576148  0.77560600    -0.35200
N298        N  0.54679366  0.99556724  0.77001429    -0.55800
C299        C  0.47028077  0.93679760  0.77061818     0.28400
C300        C  0.51961147  0.93319984  0.76536842     0.28400
C301        C  0.47995901  0.06463573  0.78228626     0.28400
C302        C  0.52958419  0.06053474  0.78235686     0.28400
C303        C  0.43299675  0.97980205  0.77068685     0.37000
C304        C  0.43681109  0.02882602  0.77321798     0.37000
C305        C  0.56253253  0.97047329  0.76162227     0.37000
C306        C  0.56663323  0.01909979  0.76955848     0.37000
C307        C  0.47762595  0.90627455  0.77338488    -0.20500
C308        C  0.50866868  0.90398940  0.76993993    -0.20500
C309        C  0.49136555  0.09191060  0.79309650    -0.20500
C310        C  0.52260169  0.08929683  0.79328154    -0.20500
C311        C  0.40388841  0.99133907  0.76702989    -0.21500
C312        C  0.40631589  0.02231968  0.76845853    -0.21500
C313        C  0.59270139  0.97803983  0.75640974    -0.21500
C314        C  0.59531422  0.00873445  0.76153199    -0.21500
C315        C  0.44022930  0.94851641  0.77102489    -0.16900
C316        C  0.55054151  0.94058636  0.75999949    -0.16900
C317        C  0.55955803  0.04963906  0.77711166    -0.16900
C318        C  0.44866601  0.05836313  0.77763863    -0.16900
H319        H  0.46218486  0.88749474  0.77708520     0.16000
H320        H  0.52168070  0.88313318  0.77069235     0.16000
H321        H  0.47851613  0.11167930  0.80009234     0.16000
H322        H  0.53838410  0.10679769  0.80031175     0.16000
H323        H  0.38302989  0.97877262  0.76354398     0.14300
H324        H  0.38762407  0.03819022  0.76653754     0.14300
H325        H  0.61101483  0.96298304  0.74983718     0.14300
H326        H  0.61598832  0.02191208  0.75949775     0.14300
H327        H  0.49714111  0.97555648  0.75930215     0.27600
H328        H  0.50166585  0.02549130  0.76386218     0.27600
N329        N  0.24584021  0.54913029  0.00229334    -0.35200
N330        N  0.25072032  0.50288172  0.04868308    -0.55800
N331        N  0.24247686  0.45591676  0.00269305    -0.35200
N332        N  0.23975793  0.50222946  0.95575935    -0.55800
C333        C  0.25639652  0.56600093  0.02575600     0.28400
C334        C  0.24909745  0.56588580  0.97678664     0.28400
C335        C  0.25096253  0.43891626  0.02691465     0.28400
C336        C  0.24579888  0.43851614  0.97749423     0.28400
C337        C  0.24953815  0.52773475  0.06665470     0.37000
C338        C  0.24664377  0.47865881  0.06703181     0.37000
C339        C  0.23299439  0.52698936  0.93885392     0.37000
C340        C  0.23260309  0.47763636  0.93874131     0.37000
C341        C  0.26627785  0.59392588  0.01504167    -0.20500
C342        C  0.26160101  0.59389260  0.98413987    -0.20500
C343        C  0.25946486  0.41023464  0.01704007    -0.20500
C344        C  0.25623759  0.40998542  0.98588927    -0.20500
C345        C  0.24472992  0.51930212  0.09660055    -0.21500
C346        C  0.24282518  0.48818903  0.09684132    -0.21500
C347        C  0.22172590  0.51808955  0.91081431    -0.21500
C348        C  0.22156116  0.48683278  0.91071138    -0.21500
C349        C  0.25535757  0.55760071  0.05671320    -0.16900
C350        C  0.23917759  0.55733029  0.94748243    -0.16900
C351        C  0.23782326  0.44712081  0.94747731    -0.16900
C352        C  0.24959419  0.44812469  0.05774031    -0.16900
H353        H  0.27546457  0.61257766  0.02816909     0.16000
H354        H  0.26658926  0.61250901  0.96887541     0.16000
H355        H  0.26698217  0.39134450  0.03086471     0.16000
H356        H  0.26078111  0.39084415  0.97114218     0.16000
H357        H  0.24331396  0.53398014  0.11627708     0.14300
H358        H  0.23975445  0.47416429  0.11679732     0.14300
H359        H  0.21483895  0.53259115  0.89219096     0.14300
H360        H  0.21440578  0.47252511  0.89204060     0.14300
H361        H  0.23377238  0.52895976  0.00393593     0.27600
H362        H  0.23180738  0.47690501  0.00371615     0.27600
N363        N  0.75631134  0.45232820  0.00067331    -0.35200
N364        N  0.74668245  0.49688138  0.95314792    -0.55800
N365        N  0.73761221  0.54380852  0.99965917    -0.35200
N366        N  0.74428025  0.49830762  0.04729825    -0.55800
C367        C  0.75487224  0.43393354  0.97605775     0.28400
C368        C  0.75303947  0.43455232  0.02550428     0.28400
C369        C  0.72994160  0.55966365  0.97438061     0.28400
C370        C  0.72936733  0.56057506  0.02418639     0.28400
C371        C  0.75603294  0.47339816  0.93562344     0.37000
C372        C  0.74544138  0.52152312  0.93487892     0.37000
C373        C  0.75247625  0.47488732  0.06547673     0.33000
C374        C  0.74292449  0.52336687  0.06509199     0.37000
C375        C  0.75080668  0.40412798  0.98535783    -0.20500
C376        C  0.74960121  0.40450670  0.01651735    -0.20500
C377        C  0.71695891  0.58707648  0.98298226    -0.20500
C378        C  0.71662317  0.58766341  0.01430199    -0.20500
C379        C  0.76029691  0.48302624  0.90597598    -0.21500
C380        C  0.75355121  0.51345454  0.90547110    -0.21500
C381        C  0.75581961  0.48498658  0.09510776    -0.21500
C382        C  0.74977039  0.51564465  0.09487836    -0.21500
C383        C  0.75880587  0.44301403  0.94554576    -0.16900
C384        C  0.75522634  0.44425250  0.05604432    -0.16900
C385        C  0.73432022  0.55281558  0.05516816    -0.16900
C386        C  0.73576807  0.55087926  0.94384041    -0.16900
H387        H  0.74909292  0.38411539  0.97117860     0.16000
H388        H  0.74683740  0.38477494  0.03091493     0.16000
H389        H  0.70879782  0.60496889  0.96822414     0.16000
H390        H  0.70810559  0.60607299  0.02820327     0.16000
H391        H  0.76715073  0.46947210  0.88663581     0.14300
H392        H  0.75436177  0.52791600  0.88560965     0.14300
H393        H  0.76173172  0.47161514  0.11487616     0.14300
H394        H  0.75020151  0.53049922  0.11446507     0.14300
H395        H  0.76294271  0.47494996  0.00072189     0.27600
H396        H  0.75057728  0.52417457  0.00011263     0.27600
O397        O  0.71864453  0.79296806  0.77334078    -0.86900
C398        C  0.69862603  0.70192924  0.76722358     0.89100
Mg399      Mg  0.72807962  0.82066262  0.73412614     1.58100
O400        O  0.77239423  0.71653707  0.79473548    -0.86700
O401        O  0.74115922  0.77853181  0.81539437    -0.74000
C402        C  0.82816481  0.73992951  0.65516301     0.94100
O403        O  0.68321198  0.75796679  0.71954534    -0.73800
O404        O  0.80678908  0.75893936  0.65116296    -0.81300
Mg405      Mg  0.67821353  0.76506149  0.77096918     1.58000
C406        C  0.84555497  0.66733602  0.75761603     0.94100
O407        O  0.66600095  0.77120605  0.82121423    -0.79600
H408        H  0.80014187  0.73513036  0.82550320    -0.04900
C409        C  0.76559315  0.69799249  0.70445690     0.89000
O410        O  0.77964370  0.81503830  0.74138423    -0.74100
O411        O  0.70567115  0.72561753  0.78051812    -0.86900
O412        O  0.82083327  0.66226929  0.77199270    -0.79700
C413        C  0.73926579  0.65159010  0.83007692     0.94200
C414        C  0.67046711  0.75791857  0.84646308     0.94000
Mg415      Mg  0.82001261  0.73188327  0.73054311     1.58000
O416        O  0.83237910  0.72624869  0.68025633    -0.79600
O417        O  0.81508388  0.73853971  0.78202426    -0.73800
O418        O  0.72582977  0.67694253  0.83393168    -0.79700
O419        O  0.64895489  0.80631888  0.76099902    -0.81400
O420        O  0.77136900  0.82065642  0.66677198    -0.79700
C421        C  0.79605695  0.72983976  0.80186894     0.88500
O422        O  0.79256687  0.77162292  0.72097157    -0.86800
O423        O  0.77967121  0.70396473  0.72801858    -0.86900
O424        O  0.75770293  0.71852685  0.68575593    -0.74000
Mg425      Mg  0.73290258  0.72730091  0.82134143     1.58000
O426        O  0.75839553  0.64714126  0.80877850    -0.81400
H427        H  0.73983303  0.82223124  0.80084043    -0.05100
O428        O  0.72578653  0.78011300  0.70663938    -0.86600
H429        H  0.69822976  0.76093007  0.67605943    -0.04900
H430        H  0.82304270  0.79936520  0.74009594    -0.05100
C431        C  0.70223644  0.76653449  0.69963374     0.88400
C432        C  0.73307605  0.79899106  0.79669141     0.89000
C433        C  0.79953417  0.79542785  0.73409288     0.89100
H434        H  0.75904488  0.67473666  0.70006568    -0.05100
O435        O  0.71842316  0.68230550  0.75974539    -0.74100
Mg436      Mg  0.76538096  0.76993354  0.67997200     1.58000
H437        H  0.67511160  0.69815677  0.76114039    -0.05100
C438        C  0.65239726  0.82880166  0.74322877     0.94100
O439        O  0.73847835  0.84964320  0.69236340    -0.81300
C440        C  0.75715692  0.84563009  0.67062759     0.94100
O441        O  0.69182280  0.73889417  0.85046053    -0.81300
Mg442      Mg  0.76983251  0.67610560  0.76710563     1.58200
O443        O  0.67719281  0.83376556  0.72903703    -0.79700
O444        O  0.84895320  0.69017320  0.74025409    -0.81400
N445        N  0.75811057  0.95580216  0.50155448    -0.35200
N446        N  0.75618483  0.00201745  0.45385793    -0.55800
N447        N  0.74424491  0.04814447  0.50004625    -0.35200
N448        N  0.74907661  0.00272798  0.54774921    -0.55800
C449        C  0.76724510  0.93904224  0.47734268     0.28400
C450        C  0.76409556  0.93954437  0.52706094     0.28400
C451        C  0.74927185  0.06593312  0.47550600     0.28400
C452        C  0.74531570  0.06628895  0.52484917     0.28400
C453        C  0.75691358  0.97691603  0.43609808     0.37000
C454        C  0.74954297  0.02576791  0.43545515     0.37000
C455        C  0.74801609  0.97796601  0.56589820     0.37000
C456        C  0.73993787  0.02659366  0.56485309     0.37000
C457        C  0.77875421  0.91155308  0.48761943    -0.20500
C458        C  0.77679931  0.91188320  0.51888044    -0.20500
C459        C  0.75351131  0.09575450  0.48484959    -0.20500
C460        C  0.75098846  0.09597393  0.51595255    -0.20500
C461        C  0.75122635  0.98490661  0.40613701    -0.21500
C462        C  0.74654083  0.01580157  0.40574648    -0.21500
C463        C  0.73855336  0.98627925  0.59480756    -0.21500
C464        C  0.73339262  0.01702866  0.59411820    -0.21500
C465        C  0.76409688  0.94716595  0.44622441    -0.16900
C466        C  0.75711088  0.94829978  0.55737390    -0.16900
C467        C  0.73944585  0.05716515  0.55505892    -0.16900
C468        C  0.74779296  0.05649090  0.44484810    -0.16900
H469        H  0.78753024  0.89305094  0.47400570     0.16000
H470        H  0.78375909  0.89367768  0.53386626     0.16000
H471        H  0.75759052  0.11544468  0.47070507     0.16000
H472        H  0.75279081  0.11582978  0.53034018     0.16000
H473        H  0.75065063  0.97005889  0.38654885     0.14300
H474        H  0.74172731  0.02939885  0.38583503     0.14300
H475        H  0.73587558  0.97176296  0.61446480     0.14300
H476        H  0.72609861  0.03082517  0.61312330     0.14300
H477        H  0.74567633  0.97574809  0.50054070     0.27600
H478        H  0.73668997  0.02584170  0.49955961     0.27600
O479        O  0.72827355  0.29261630  0.21787741    -0.86900
C480        C  0.73390171  0.20181117  0.19882821     0.89100
Mg481      Mg  0.76759881  0.32045109  0.22814637     1.58100
O482        O  0.70543689  0.21994930  0.27160944    -0.86700
O483        O  0.68425661  0.28011192  0.23724856    -0.74000
C484        C  0.84545158  0.24342303  0.33197858     0.94100
O485        O  0.78244879  0.25735092  0.18508207    -0.73800
O486        O  0.85007081  0.26188588  0.31021281    -0.81300
Mg487      Mg  0.73109428  0.26480932  0.17750224     1.58000
C488        C  0.74056776  0.17197485  0.34626371     0.94100
O489        O  0.68045106  0.27034599  0.16294280    -0.79600
H490        H  0.67512064  0.24102224  0.29807689    -0.04900
C491        C  0.79690072  0.20020162  0.26879405     0.89000
O492        O  0.75893503  0.31663975  0.27941676    -0.74100
O493        O  0.72006593  0.22552115  0.20464283    -0.86900
O494        O  0.72651730  0.16768564  0.32137280    -0.79700
C495        C  0.66959342  0.15319998  0.24286330     0.94200
C496        C  0.65524290  0.25645527  0.16679300     0.94000
Mg497      Mg  0.76980123  0.23538770  0.32130420     1.58000
O498        O  0.82015936  0.22974214  0.33569002    -0.79600
O499        O  0.71842852  0.24278327  0.31392190    -0.73800
O500        O  0.66516280  0.17739346  0.22749499    -0.79700
O501        O  0.74260020  0.30638132  0.14875208    -0.81400
O502        O  0.83594744  0.32267772  0.27157319    -0.79700
C503        C  0.69856911  0.23448170  0.29464816     0.88500
O504        O  0.78078898  0.27455610  0.29414203    -0.86800
O505        O  0.77267616  0.20742448  0.28099923    -0.86900
O506        O  0.81666640  0.21994280  0.26156425    -0.74000
Mg507      Mg  0.67878662  0.22843232  0.23129512     1.58000
O508        O  0.69191415  0.15028174  0.26098344    -0.81400
H509        H  0.69979743  0.32348048  0.23519637    -0.05100
O510        O  0.79556277  0.28011576  0.22742755    -0.86600
H511        H  0.82576183  0.25890372  0.20093245    -0.04900
H512        H  0.76048946  0.30279449  0.32335067    -0.05100
C513        C  0.80234547  0.26555281  0.20437240     0.88400
C514        C  0.70401820  0.29985180  0.23000926     0.89000
C515        C  0.76689430  0.29819652  0.30008712     0.89100
H516        H  0.80108689  0.17658296  0.26353026    -0.05100
O517        O  0.74171055  0.18339349  0.21959330    -0.74100
Mg518      Mg  0.82221204  0.27161703  0.26764031     1.58000
H519        H  0.74031529  0.19707650  0.17559382    -0.05100
C520        C  0.76130667  0.32801148  0.15299028     0.94100
O521        O  0.80885921  0.34993196  0.23851130    -0.81300
C522        C  0.83125716  0.34703158  0.25653422     0.94100
O523        O  0.65088392  0.23804264  0.18866600    -0.81300
Mg524      Mg  0.73336734  0.17955186  0.27099008     1.58200
O525        O  0.77517005  0.33196312  0.17801142    -0.79700
O526        O  0.75876489  0.19404127  0.35025689    -0.81400
N527        N  0.00306143  0.54839528  0.21901362    -0.35200
N528        N  0.04704645  0.49856210  0.22266191    -0.55800
N529        N  0.99669176  0.45554387  0.22989445    -0.35200
N530        N  0.95315316  0.50580724  0.22963534    -0.55800
C531        C  0.02923763  0.56442317  0.22140050     0.28400
C532        C  0.97976496  0.56810101  0.22319422     0.28400
C533        C  0.02056754  0.43634295  0.23311692     0.28400
C534        C  0.97119411  0.44036962  0.23832162     0.28400
C535        C  0.06659766  0.52159822  0.21684321     0.37000
C536        C  0.06317321  0.47242409  0.22086225     0.37000
C537        C  0.93658028  0.53113535  0.22413899     0.37000
C538        C  0.93323635  0.48243802  0.23166934     0.37000
C539        C  0.02235526  0.59478103  0.22663471    -0.20500
C540        C  0.99124693  0.59708687  0.22766258    -0.20500
C541        C  0.00996365  0.40835655  0.24305603    -0.20500
C542        C  0.97897397  0.41091464  0.24639578    -0.20500
C543        C  0.09547195  0.51006265  0.21165770    -0.21500
C544        C  0.09330267  0.47896930  0.21413287    -0.21500
C545        C  0.90593376  0.52385575  0.22300271    -0.21500
C546        C  0.90381282  0.49310640  0.22788118    -0.21500
C547        C  0.05915171  0.55292287  0.21785202    -0.16900
C548        C  0.94839080  0.56100179  0.22211327    -0.16900
C549        C  0.94095202  0.45178931  0.23794511    -0.16900
C550        C  0.05155958  0.44289052  0.22671435    -0.16900
H551        H  0.03807320  0.61349236  0.22936434     0.16000
H552        H  0.97854517  0.61780818  0.23141914     0.16000
H553        H  0.02316325  0.38810054  0.24755012     0.16000
H554        H  0.96388388  0.39296765  0.25380002     0.16000
H555        H  0.11600752  0.52273413  0.20685255     0.14300
H556        H  0.11188734  0.46304130  0.21163612     0.14300
H557        H  0.88700480  0.53916151  0.21945300     0.14300
H558        H  0.88294629  0.48009888  0.22856982     0.14300
H559        H  0.00108111  0.52608872  0.21185391     0.27600
H560        H  0.99751182  0.47685748  0.22015200     0.27600
O561        O  0.23297246  0.69610856  0.24521725    -0.86900
C562        C  0.24662676  0.76220941  0.18037143     0.89100
Mg563      Mg  0.20101739  0.70026459  0.28223457     1.58100
O564        O  0.30580798  0.75589222  0.23395514    -0.86700
O565        O  0.28154585  0.68792596  0.23763007    -0.74000
C566        C  0.22984112  0.83691472  0.33863049     0.94100
O567        O  0.18402951  0.74358649  0.21880256    -0.73800
O568        O  0.20767963  0.81866706  0.33544643    -0.81300
Mg569      Mg  0.21599070  0.70671360  0.20034947     1.58000
C570        C  0.33896317  0.83516788  0.27433937     0.94100
O571        O  0.24290315  0.66913452  0.17642522    -0.79600
H572        H  0.33783958  0.73124510  0.25468048    -0.04900
C573        C  0.24164516  0.82071449  0.25094471     0.89000
O574        O  0.23894975  0.71528869  0.31481891    -0.74100
O575        O  0.25255382  0.73875535  0.19455539    -0.86900
O576        O  0.33596726  0.82343632  0.24803366    -0.79700
C577        C  0.33392690  0.77574879  0.16043390     0.94200
C578        C  0.26801224  0.66573000  0.16251432     0.94000
Mg579      Mg  0.28210163  0.79584542  0.30123260     1.58000
O580        O  0.25502473  0.83348912  0.32485193    -0.79600
O581        O  0.31398959  0.75881136  0.28291250    -0.73800
O582        O  0.32032146  0.75026744  0.16283524    -0.79700
O583        O  0.17779537  0.67272862  0.20578191    -0.81400
O584        O  0.17782518  0.75200545  0.33882474    -0.79700
C585        C  0.32019631  0.74821602  0.25681031     0.88500
O586        O  0.24551960  0.76383023  0.30701342    -0.86800
O587        O  0.26523207  0.80637608  0.25630202    -0.86900
O588        O  0.21652253  0.81420725  0.26368550    -0.74000
Mg589      Mg  0.29802864  0.72114934  0.20071111     1.58000
O590        O  0.33092226  0.79681879  0.18003973    -0.81400
H591        H  0.25572789  0.66330132  0.26684720    -0.05100
O592        O  0.19220112  0.74631060  0.26776168    -0.86600
H593        H  0.16003147  0.77087934  0.24716669    -0.04900
H594        H  0.26865095  0.74112994  0.33883433    -0.05100
C595        C  0.17775335  0.75399955  0.24495372     0.88400
C596        C  0.25642742  0.68152015  0.25039804     0.89000
C597        C  0.25159193  0.74039891  0.32116738     0.89100
H598        H  0.24223473  0.83880736  0.23435287    -0.05100
O599        O  0.25944435  0.78724535  0.18668681    -0.74100
Mg600      Mg  0.19998284  0.78118204  0.30080236     1.58000
H601        H  0.22958836  0.76156054  0.16268143    -0.05100
C602        C  0.15974231  0.66664313  0.22745317     0.94100
O603        O  0.16777341  0.70523497  0.32181646    -0.81300
C604        C  0.16461731  0.72631473  0.34138497     0.94100
O605        O  0.29022888  0.68389695  0.16577946    -0.81300
Mg606      Mg  0.29738663  0.80198898  0.21943167     1.58200
O607        O  0.16253635  0.67829547  0.25382525    -0.79700
O608        O  0.32064695  0.82966475  0.29596581    -0.81400
N609        N  0.25726199  0.04576609  0.49807999    -0.35200
N610        N  0.25992216  0.99944195  0.54531360    -0.55800
N611        N  0.25315929  0.95265729  0.49910209    -0.35200
N612        N  0.24857877  0.99892803  0.45248366    -0.55800
C613        C  0.25409754  0.06311934  0.52328348     0.28400
C614        C  0.24835519  0.06273809  0.47398028     0.28400
C615        C  0.24964697  0.93596515  0.52463762     0.28400
C616        C  0.24235444  0.93593627  0.47565434     0.28400
C617        C  0.26726398  0.02406629  0.56218836     0.37000
C618        C  0.26606682  0.97471237  0.56251614     0.37000
C619        C  0.25256862  0.02305345  0.43399553     0.37000
C620        C  0.24970493  0.97401738  0.43463236     0.37000
C621        C  0.24332352  0.09158454  0.51503390    -0.20500
C622        C  0.23970330  0.09133190  0.48394505    -0.20500
C623        C  0.23669986  0.90816166  0.51730452    -0.20500
C624        C  0.23202407  0.90818371  0.48639860    -0.20500
C625        C  0.27778666  0.01493426  0.59044789    -0.21500
C626        C  0.27708363  0.98367262  0.59063275    -0.21500
C627        C  0.25633905  0.01342062  0.40422658    -0.21500
C628        C  0.25447786  0.98231523  0.40463061    -0.21500
C629        C  0.26245951  0.05457354  0.55317547    -0.16900
C630        C  0.24946281  0.05356645  0.44316796    -0.16900
C631        C  0.24354247  0.94427501  0.44468050    -0.16900
C632        C  0.25964901  0.94438462  0.55396756    -0.16900
H633        H  0.23875290  0.11067029  0.52984546     0.16000
H634        H  0.23183044  0.11015060  0.47022087     0.16000
H635        H  0.23138920  0.88965508  0.53259305     0.16000
H636        H  0.22253228  0.88967641  0.47328436     0.16000
H637        H  0.28484476  0.02929387  0.60911695     0.14300
H638        H  0.28342817  0.96922460  0.60948905     0.14300
H639        H  0.25929522  0.02736854  0.38419876     0.14300
H640        H  0.25578597  0.96755896  0.38500640     0.14300
H641        H  0.26811723  0.02483829  0.49701122     0.27600
H642        H  0.26553232  0.97266848  0.49737606     0.27600
O643        O  0.26963762  0.29942871  0.77569787    -0.86900
C644        C  0.27166878  0.20956724  0.80195396     0.89100
Mg645      Mg  0.22785216  0.32316878  0.76533570     1.58100
O646        O  0.29576359  0.22195881  0.72664584    -0.86700
O647        O  0.31265662  0.28697445  0.75377519    -0.74000
C648        C  0.15241248  0.22896507  0.67408205     0.94100
O649        O  0.21981011  0.26317688  0.81520117    -0.73800
O650        O  0.14746145  0.24864247  0.69464456    -0.81300
Mg651      Mg  0.27065751  0.27449937  0.81800319     1.58000
C652        C  0.26176915  0.16588738  0.65752491     0.94100
O653        O  0.32082294  0.28508711  0.82863066    -0.79600
H654        H  0.32329429  0.24243085  0.69688127    -0.04900
C655        C  0.20751810  0.19600508  0.73807939     0.89000
O656        O  0.23396091  0.31394542  0.71426328    -0.74100
O657        O  0.28262839  0.23381909  0.79303222    -0.86900
O658        O  0.27680625  0.16376576  0.68222436    -0.79700
C659        C  0.33724245  0.16152632  0.76203112     0.94200
C660        C  0.34654884  0.27230920  0.82511675     0.94000
Mg661      Mg  0.22848909  0.22816164  0.68032214     1.58000
O662        O  0.17844888  0.21707386  0.66986634    -0.79600
O663        O  0.27923206  0.24012010  0.68342053    -0.73800
O664        O  0.33937896  0.18776837  0.77409021    -0.79700
O665        O  0.25794312  0.31711147  0.84451537    -0.81400
O666        O  0.15969736  0.31382871  0.72426015    -0.79700
C667        C  0.30054147  0.23475768  0.70212671     0.88500
O668        O  0.21622319  0.26838123  0.70536376    -0.86800
O669        O  0.22984720  0.20302273  0.72249059    -0.86900
O670        O  0.18726438  0.21526908  0.74541431    -0.74000
Mg671      Mg  0.32262049  0.23677349  0.76473781     1.58000
O672        O  0.31596182  0.15459806  0.74367543    -0.81400
H673        H  0.29461455  0.32938649  0.75242290    -0.05100
O674        O  0.20363740  0.28086319  0.77169397    -0.86600
H675        H  0.17570072  0.26151616  0.80181970    -0.04900
H676        H  0.23202078  0.29510364  0.67223105    -0.05100
C677        C  0.19859902  0.26864603  0.79644041     0.88400
C678        C  0.29234882  0.30635930  0.76064183     0.89000
C679        C  0.22722467  0.29250625  0.69617880     0.89100
H680        H  0.20564543  0.17300906  0.74648435    -0.05100
O681        O  0.26543687  0.18812926  0.78365586    -0.74100
Mg682      Mg  0.17661136  0.26518724  0.73409775     1.58000
H683        H  0.26666176  0.20676193  0.82583417    -0.05100
C684        C  0.23823348  0.33782069  0.84017862     0.94100
O685        O  0.18366349  0.34801738  0.75316956    -0.81300
C686        C  0.16223306  0.34052556  0.73516037     0.94100
O687        O  0.35132404  0.25231751  0.80482908    -0.81300
Mg688      Mg  0.27174382  0.17952573  0.73239088     1.58200
O689        O  0.22318937  0.34000385  0.81544135    -0.79700
O690        O  0.24159804  0.18614799  0.65334995    -0.81400
N691        N  0.99575691  0.45431289  0.71233201    -0.35200
N692        N  0.95347135  0.50387750  0.72424981    -0.55800
N693        N  0.00408887  0.54714078  0.72487539    -0.35200
N694        N  0.04630644  0.49740718  0.71534112    -0.55800
C695        C  0.96988519  0.43848782  0.71772409     0.28400
C696        C  0.01945449  0.43487925  0.71569774     0.28400
C697        C  0.98163236  0.56466355  0.73663823     0.28400
C698        C  0.03088514  0.56148419  0.73011915     0.28400
C699        C  0.93311325  0.48170532  0.71781791     0.37000
C700        C  0.93759443  0.53014530  0.72637547     0.37000
C701        C  0.06176065  0.47192052  0.70794000     0.37000
C702        C  0.06597051  0.52080504  0.71211272     0.37000
C703        C  0.97718629  0.40841827  0.72372662    -0.20500
C704        C  0.00841532  0.40618446  0.72260830    -0.20500
C705        C  0.99432609  0.59072962  0.74903742    -0.20500
C706        C  0.02532693  0.58875563  0.74486035    -0.20500
C707        C  0.90413803  0.49397067  0.71585504    -0.21500
C708        C  0.90695825  0.52458487  0.72135409    -0.21500
C709        C  0.09135322  0.47917777  0.69983060    -0.21500
C710        C  0.09398048  0.51012597  0.70233459    -0.21500
C711        C  0.93987674  0.45026137  0.71667883    -0.16900
C712        C  0.05064075  0.44204817  0.71160269    -0.16900
C713        C  0.06007190  0.55104354  0.72114600    -0.16900
C714        C  0.94995692  0.55858001  0.73509415    -0.16900
H715        H  0.96165360  0.39001248  0.72870207     0.16000
H716        H  0.02148360  0.38569103  0.72634835     0.16000
H717        H  0.98247937  0.60937129  0.75985072     0.16000
H718        H  0.04189056  0.60549370  0.75195184     0.16000
H719        H  0.88305693  0.48200071  0.71165805     0.14300
H720        H  0.88847945  0.54081020  0.72205817     0.14300
H721        H  0.10939222  0.46370775  0.69346291     0.14300
H722        H  0.11448895  0.52313195  0.69841197     0.14300
H723        H  0.99692557  0.47642052  0.70421548     0.27600
H724        H  0.00106035  0.52803152  0.71140009     0.27600
N725        N  0.49413233  0.27083526  0.04456223    -0.35200
N726        N  0.54445725  0.27580041  0.00160641    -0.55800
N727        N  0.50092145  0.28396454  0.95194040    -0.35200
N728        N  0.45061132  0.27580544  0.99445962    -0.55800
C729        C  0.51778663  0.26410404  0.06315675     0.28400
C730        C  0.46820293  0.26264103  0.05907881     0.28400
C731        C  0.52691984  0.28020466  0.93586013     0.28400
C732        C  0.47743494  0.28124045  0.93220659     0.28400
C733        C  0.56073452  0.27594554  0.02770644     0.37000
C734        C  0.56429650  0.28140483  0.97876583     0.37000
C735        C  0.43070354  0.27475271  0.01788536     0.37000
C736        C  0.43435222  0.28273356  0.96929011     0.37000
C737        C  0.50669030  0.25210053  0.09009019    -0.20500
C738        C  0.47552710  0.25109177  0.08750275    -0.20500
C739        C  0.51981709  0.27579695  0.90544877    -0.20500
C740        C  0.48870264  0.27648531  0.90315089    -0.20500
C741        C  0.59113835  0.28141680  0.02132480    -0.21500
C742        C  0.59339255  0.28478496  0.99037627    -0.21500
C743        C  0.40157964  0.28092274  0.00748433    -0.21500
C744        C  0.40389630  0.28601814  0.97675382    -0.21500
C745        C  0.54904578  0.26924910  0.05696185    -0.16900
C746        C  0.43805352  0.26632983  0.04808107    -0.16900
C747        C  0.44612905  0.28363223  0.93936367    -0.16900
C748        C  0.55694334  0.28154285  0.94745394    -0.16900
H749        H  0.51969496  0.24469231  0.10960256     0.16000
H750        H  0.46003490  0.24286434  0.10474298     0.16000
H751        H  0.53540920  0.27235052  0.88674000     0.16000
H752        H  0.47586389  0.27361427  0.88237457     0.16000
H753        H  0.60987170  0.28236742  0.03723867     0.14300
H754        H  0.61414952  0.28891077  0.97782584     0.14300
H755        H  0.38075799  0.28130078  0.02058999     0.14300
H756        H  0.38520032  0.29097379  0.96154952     0.14300
H757        H  0.49546093  0.28293240  0.02445471     0.27600
H758        H  0.49937754  0.29074054  0.97441581     0.27600
N759        N  0.45388660  0.77826264  0.99799951    -0.35200
N760        N  0.50334863  0.77359735  0.95407466    -0.55800
N761        N  0.54737994  0.78180896  0.00294378    -0.35200
N762        N  0.49815449  0.78391168  0.04721093    -0.55800
C763        C  0.43835918  0.76839505  0.97326240     0.28400
C764        C  0.43547867  0.77482905  0.02247521     0.28400
C765        C  0.56612140  0.77414588  0.97978020     0.28400
C766        C  0.56339100  0.77870936  0.02903662     0.28400
C767        C  0.47961438  0.77363493  0.93453417     0.37000
C768        C  0.52880921  0.77666613  0.93711221     0.37000
C769        C  0.47243252  0.78897725  0.06331235     0.37000
C770        C  0.52178339  0.79004399  0.06595002     0.37000
C771        C  0.40952705  0.75915723  0.98210709    -0.20500
C772        C  0.40770098  0.76324246  0.01305320    -0.20500
C773        C  0.59450926  0.76656569  0.99124669    -0.20500
C774        C  0.59278144  0.76938820  0.02226914    -0.20500
C775        C  0.49008097  0.77659658  0.90496022    -0.21500
C776        C  0.52122355  0.77857683  0.90659692    -0.21500
C777        C  0.47980093  0.79828715  0.09250978    -0.21500
C778        C  0.51102912  0.79891828  0.09418183    -0.21500
C779        C  0.44893686  0.76856433  0.94278677    -0.16900
C780        C  0.44256208  0.78284984  0.05289618    -0.16900
C781        C  0.55279714  0.78545521  0.05864697    -0.16900
C782        C  0.55882520  0.77509863  0.94851158    -0.16900
H783        H  0.39156766  0.75041656  0.96775339     0.16000
H784        H  0.38809596  0.75818103  0.02702584     0.16000
H785        H  0.61447549  0.75974016  0.97858861     0.16000
H786        H  0.61120918  0.76519586  0.03801373     0.16000
H787        H  0.47671802  0.77679126  0.88431512     0.14300
H788        H  0.53655684  0.78049212  0.88745606     0.14300
H789        H  0.46430753  0.80348736  0.11089459     0.14300
H790        H  0.52429483  0.80474271  0.11405486     0.14300
H791        H  0.47465988  0.78941316  0.99782503     0.27600
H792        H  0.52605017  0.79164474  0.00079221     0.27600
C793        C  0.37029412  0.27923362  0.84653164    -0.17100
C794        C  0.38826296  0.28274219  0.86700483     0.07000
C795        C  0.40797898  0.28475192  0.89237687     0.08800
C796        C  0.42479259  0.28498835  0.91410865    -0.17900
C797        C  0.13906655  0.36248748  0.72762304    -0.17100
C798        C  0.11827558  0.37965134  0.72214182     0.07000
C799        C  0.09351367  0.39963437  0.71682628     0.08800
C800        C  0.07311999  0.41780465  0.71352886    -0.17900
C801        C  0.26533423  0.07850763  0.57588333    -0.17100
C802        C  0.26701274  0.09903703  0.59412080     0.07000
C803        C  0.26765892  0.12326225  0.61541547     0.08800
C804        C  0.26642635  0.14338900  0.63412190    -0.17900
C805        C  0.41784535  0.78327689  0.07504399    -0.17100
C806        C  0.39741647  0.78304210  0.09353132     0.07000
C807        C  0.37390854  0.78198181  0.11568603     0.08800
C808        C  0.35476858  0.78004416  0.13540135    -0.17900
C809        C  0.22741214  0.86147244  0.35991685    -0.17100
C810        C  0.22862619  0.88092032  0.37915819     0.07000
C811        C  0.23266230  0.90275258  0.40229647     0.08800
C812        C  0.23734167  0.92131505  0.42189121    -0.17900
C813        C  0.08355555  0.57523574  0.21662927    -0.17100
C814        C  0.10111481  0.59636688  0.21716402     0.07000
C815        C  0.11996628  0.62236438  0.21947976     0.08800
C816        C  0.13676135  0.64386761  0.22261559    -0.17900
C817        C  0.63119406  0.26078262  0.14480336    -0.17100
C818        C  0.61163122  0.26290956  0.12551996     0.07000
C819        C  0.58923402  0.26477100  0.10228687     0.08800
C820        C  0.57066968  0.26652873  0.08200335    -0.17900
C821        C  0.85331456  0.37140529  0.25809562    -0.17100
C822        C  0.87275672  0.39081606  0.25568606     0.07000
C823        C  0.89607267  0.41262065  0.25029862     0.08800
C824        C  0.91623970  0.43060691  0.24475945    -0.17900
C825        C  0.73777292  0.14925497  0.36958811    -0.17100
C826        C  0.73839120  0.12778232  0.38667052     0.07000
C827        C  0.74123360  0.10174239  0.40535181     0.08800
C828        C  0.74433740  0.08018273  0.42207334    -0.17900
C829        C  0.58374534  0.77289263  0.92696911    -0.17100
C830        C  0.60494374  0.77062368  0.90969740     0.07000
C831        C  0.62951602  0.76727738  0.88927418     0.08800
C832        C  0.64936902  0.76359525  0.87071683    -0.17900
C833        C  0.92885905  0.58279051  0.74354788    -0.17100
C834        C  0.91093730  0.60268160  0.75010263     0.07000
C835        C  0.88920389  0.62581734  0.75629158     0.08800
C836        C  0.86982785  0.64521528  0.75907530    -0.17900
C837        C  0.75986768  0.92571388  0.58152682    -0.17100
C838        C  0.76131801  0.90805765  0.60261728     0.07000
C839        C  0.76185914  0.88761406  0.62763483     0.08800
C840        C  0.76089736  0.86936068  0.64822939    -0.17900
C841        C  0.75991982  0.42075972  0.07875235    -0.17100
C842        C  0.76325024  0.39901604  0.09515022     0.07000
C843        C  0.76543352  0.37253619  0.11322527     0.08800
C844        C  0.76506135  0.35073100  0.12985115    -0.17900
C845        C  0.73394473  0.62796486  0.85212540    -0.17100
C846        C  0.73136705  0.61022379  0.87295168     0.07000
C847        C  0.73057122  0.59055309  0.89845725     0.08800
C848        C  0.73185739  0.57332967  0.91984090    -0.17900
C849        C  0.23552327  0.42339875  0.92435324    -0.17100
C850        C  0.23400739  0.40354559  0.90528488     0.07000
C851        C  0.23317079  0.38020164  0.88289551     0.08800
C852        C  0.23402970  0.36052058  0.86361462    -0.17900
C853        C  0.27032844  0.64124398  0.14108098    -0.17100
C854        C  0.26919605  0.62169763  0.12190350     0.07000
C855        C  0.26546187  0.59954268  0.09897125     0.08800
C856        C  0.26113367  0.58069489  0.07953618    -0.17900
C857        C  0.36075656  0.13951615  0.76842010    -0.17100
C858        C  0.38179485  0.12222939  0.77250093     0.07000
C859        C  0.40673945  0.10202114  0.77601585     0.08800
C860        C  0.42698167  0.08343435  0.77771931    -0.17900
C861        C  0.62818755  0.85079702  0.74103091    -0.17100
C862        C  0.60932130  0.87072674  0.74287615     0.07000
C863        C  0.58854991  0.89490571  0.74783035     0.08800
C864        C  0.57136294  0.91570583  0.75323028    -0.17900
C865        C  0.36683029  0.74469517  0.85793440    -0.17100
C866        C  0.38674233  0.74890608  0.87648844     0.07000
C867        C  0.40891799  0.75565924  0.89899186     0.08800
C868        C  0.42721218  0.76174643  0.91865925    -0.17900
C869        C  0.15495200  0.62502831  0.72856274    -0.17100
C870        C  0.13423755  0.60697258  0.72666104     0.07000
C871        C  0.10823483  0.58786301  0.72473008     0.08800
C872        C  0.08592604  0.57176172  0.72315682    -0.17900
C873        C  0.26567437  0.85401256  0.63255714    -0.17100
C874        C  0.26577329  0.87431070  0.61410051     0.07000
C875        C  0.26455753  0.89927634  0.59387612     0.08800
C876        C  0.26264914  0.92039706  0.57645278    -0.17900
C877        C  0.23546796  0.64624732  0.86752026    -0.17100
C878        C  0.23456941  0.62655408  0.88653502     0.07000
C879        C  0.23485748  0.60207388  0.90726360     0.08800
C880        C  0.23627021  0.58118968  0.92494668    -0.17900
C881        C  0.34663999  0.87322569  0.77013212    -0.17100
C882        C  0.36715162  0.89145467  0.77124649     0.07000
C883        C  0.39290097  0.91077838  0.77170636     0.08800
C884        C  0.41491763  0.92722037  0.77158338    -0.17900
C885        C  0.08114986  0.71663018  0.42688282    -0.17100
C886        C  0.10158793  0.71726652  0.40843658     0.07000
C887        C  0.12506553  0.71909062  0.38633181     0.08800
C888        C  0.14407167  0.72166347  0.36657683    -0.17900
C889        C  0.84962960  0.73477265  0.63113678    -0.17100
C890        C  0.86978398  0.73154239  0.61283408     0.07000
C891        C  0.89461040  0.72864592  0.59267281     0.08800
C892        C  0.91589779  0.72667711  0.57548808    -0.17900
C893        C  0.13473902  0.75441750  0.64233788    -0.17100
C894        C  0.11422722  0.75090288  0.62431429     0.07000
C895        C  0.09133120  0.74497904  0.60232341     0.08800
C896        C  0.07257443  0.73934896  0.58296584    -0.17900
C897        C  0.64027382  0.77952255  0.14064699    -0.17100
C898        C  0.61997917  0.78280717  0.12238788     0.07000
C899        C  0.59553114  0.78535153  0.10152558     0.08800
C900        C  0.57527027  0.78622359  0.08294778    -0.17900
C901        C  0.86780884  0.65005570  0.21862364    -0.17100
C902        C  0.88761724  0.63101883  0.21762643     0.07000
C903        C  0.90924805  0.60714161  0.21850138     0.08800
C904        C  0.92699124  0.58619202  0.22004684    -0.17900
C905        C  0.77336425  0.86083934  0.36251497    -0.17100
C906        C  0.77346341  0.88093158  0.38140076     0.07000
C907        C  0.77153012  0.90403274  0.40399899     0.08800
C908        C  0.76866620  0.92356443  0.42326373    -0.17900
C909        C  0.72718611  0.63942338  0.13890799    -0.17100
C910        C  0.72672340  0.61924679  0.12009882     0.07000
C911        C  0.72800295  0.59606749  0.09750302     0.08800
C912        C  0.73028438  0.57648347  0.07819380    -0.17900
C913        C  0.92366291  0.71285533  0.41944785    -0.17100
C914        C  0.90341229  0.71374375  0.40083540     0.07000
C915        C  0.87907161  0.71645313  0.37983094     0.08800
C916        C  0.85895917  0.71998455  0.36139654    -0.17900
C917        C  0.41827296  0.92416379  0.28312192    -0.17100
C918        C  0.40036876  0.90330088  0.28315394     0.07000
C919        C  0.38047094  0.87800755  0.28167453     0.08800
C920        C  0.36269018  0.85722098  0.27908093    -0.17900
C921        C  0.58332548  0.07111562  0.25517986    -0.17100
C922        C  0.60364591  0.08889605  0.24961833     0.07000
C923        C  0.62739987  0.11016455  0.24416305     0.08800
C924        C  0.64723897  0.12912413  0.24159568    -0.17900
C925        C  0.63339653  0.85134930  0.28273237    -0.17100
C926        C  0.61391745  0.87068081  0.28370772     0.07000
C927        C  0.59258695  0.89475171  0.28258767     0.08800
C928        C  0.57487490  0.91565755  0.28065524    -0.17900
C929        C  0.63895417  0.27537565  0.86008438    -0.17100
C930        C  0.62099722  0.27809736  0.88070492     0.07000
C931        C  0.60032882  0.28042517  0.90529614     0.08800
C932        C  0.58163239  0.28152061  0.92541206    -0.17900
C933        C  0.85293757  0.36716782  0.72141005    -0.17100
C934        C  0.87132386  0.38750726  0.71889868     0.07000
C935        C  0.89426268  0.41019003  0.71716634     0.08800
C936        C  0.91463432  0.42872104  0.71653148    -0.17900
C937        C  0.72490540  0.14357143  0.63684688    -0.17100
C938        C  0.72563865  0.12427371  0.61735389     0.07000
C939        C  0.72918870  0.10083544  0.59562773     0.08800
C940        C  0.73354477  0.08078507  0.57739361    -0.17900
C941        C  0.77457186  0.35684781  0.86361432    -0.17100
C942        C  0.77359786  0.37607166  0.88319127     0.07000
C943        C  0.76964666  0.39948387  0.90491468     0.08800
C944        C  0.76496339  0.41950250  0.92312703    -0.17900
C945        C  0.64564100  0.13380362  0.77783792    -0.17100
C946        C  0.62731187  0.11330840  0.77949656     0.07000
C947        C  0.60461921  0.09028914  0.77984043     0.08800
C948        C  0.58452340  0.07144646  0.77910294    -0.17900
C949        C  0.35526616  0.24398023  0.13230310    -0.17100
C950        C  0.37256643  0.24785581  0.11125180     0.07000
C951        C  0.39386281  0.25427809  0.08785538     0.08800
C952        C  0.41319211  0.26004890  0.06911863    -0.17900
C953        C  0.07284042  0.41746747  0.22723789    -0.17100
C954        C  0.08950002  0.39557729  0.22812475     0.07000
C955        C  0.10910790  0.36999227  0.22959360     0.08800
C956        C  0.12735263  0.34946796  0.23124608    -0.17900
C957        C  0.24569263  0.07622772  0.41946338    -0.17100
C958        C  0.24259378  0.09344907  0.39831936     0.07000
C959        C  0.23955338  0.11316388  0.37309833     0.08800
C960        C  0.23810960  0.13124342  0.35250847    -0.17900
C961        C  0.26064494  0.36937880  0.14755675    -0.17100
C962        C  0.25899651  0.38774109  0.12723240     0.07000
C963        C  0.25588759  0.40787043  0.10235010     0.08800
C964        C  0.25295403  0.42535690  0.08140275    -0.17900
C965        C  0.37193857  0.15022082  0.26972572    -0.17100
C966        C  0.39012355  0.12962790  0.27186418     0.07000
C967        C  0.40988329  0.10409037  0.27362285     0.08800
C968        C  0.42676617  0.08231473  0.27434268    -0.17900
C969        C  0.86916522  0.23880962  0.35415523    -0.17100
C970        C  0.88807474  0.23625915  0.37396649     0.07000
C971        C  0.90960008  0.23400965  0.39788048     0.08800
C972        C  0.92770418  0.23225402  0.41851928    -0.17900
C973        C  0.07456209  0.21611885  0.58507868    -0.17100
C974        C  0.09116325  0.21593383  0.60696440     0.07000
C975        C  0.11059884  0.21780086  0.63255037     0.08800
C976        C  0.12850658  0.22152283  0.65303213    -0.17900
C977        C  0.86131348  0.22478761  0.64121060    -0.17100
C978        C  0.87936849  0.22217608  0.62065434     0.07000
C979        C  0.89982550  0.22023681  0.59584029     0.08800
C980        C  0.91818508  0.21957969  0.57539019    -0.17900
C981        C  0.08485115  0.24130884  0.42993343    -0.17100
C982        C  0.10419351  0.24694748  0.41116447     0.07000
C983        C  0.12583997  0.25311245  0.38801148     0.08800
C984        C  0.14362223  0.25678790  0.36732387    -0.17900
loop_ 
_geom_bond_atom_site_label_1 
_geom_bond_atom_site_label_2 
_geom_bond_distance 
_geom_bond_site_symmetry_2 
_ccdc_geom_bond_type 
N1            C6   1.354   1_655  A
N1            C5   1.354       .  A
N1           H33   1.038       .  S
N2            C9   1.353       .  A
N2           C10   1.353       .  A
N3            C8   1.356       .  A
N3            C7   1.355   1_455  A
N3           H34   1.036       .  S
N4           C11   1.353       .  A
N4           C12   1.353       .  A
C5           C13   1.388       .  A
C5           C21   1.415       .  A
C6           C22   1.414       .  A
C6           C14   1.387       .  A
C7           C15   1.387       .  A
C7           C24   1.418       .  A
C8           C23   1.420       .  A
C8           C16   1.388       .  A
C9           C21   1.414       .  A
C9           C17   1.386       .  A
C10          C24   1.416       .  A
C10          C18   1.388       .  A
C11          C19   1.386       .  A
C11          C22   1.415       .  A
C12          C20   1.387       .  A
C12          C23   1.416       .  A
C13          C14   1.373   1_655  A
C13          H25   1.082       .  S
C14          H26   1.082       .  S
C15          C16   1.376   1_655  A
C15          H27   1.082       .  S
C16          H28   1.082       .  S
C17          C18   1.375       .  A
C17          H29   1.082       .  S
C18          H30   1.082       .  S
C19          C20   1.376       .  A
C19          H31   1.082       .  S
C20          H32   1.082       .  S
C21         C980   1.456       .  S
C22         C973   1.455       .  S
C23         C981   1.459       .  S
C24         C972   1.458       .  S
O35         Mg37   2.158       .  S
O35         Mg43   2.159       .  S
O35          C70   1.235       .  S
C36          H75   1.081       .  S
C36          O49   1.235       .  S
C36          O73   1.269       .  A
Mg37         O66   2.164       .  S
Mg37         O81   2.301       .  S
Mg37         O77   2.268       .  S
Mg37         O48   2.294       .  S
O38         Mg80   2.163       .  S
O38         Mg63   2.163       .  S
O38          C59   1.236       .  S
O39          C70   1.270       .  A
O39         Mg63   2.304       .  S
C40         C984   1.444       .  S
C40          O42   1.275       .  A
C40          O54   1.273       .  A
O41          C69   1.271       .  A
O41         Mg43   2.302       .  S
O42         Mg74   2.296       .  S
Mg43         O49   2.157       .  S
Mg43         O57   2.274       .  S
Mg43         O45   2.300       .  S
C44         C960   1.439       .  S
C44          O82   1.270       .  A
C44          O50   1.273       .  A
O45          C52   1.273       .  A
H46          C59   1.081       .  S
C47          H72   1.081       .  S
C47          O61   1.235       .  S
C47          O62   1.270       .  A
O48          C71   1.269       .  A
O49         Mg63   2.167       .  S
O50         Mg80   2.304       .  S
C51         C965   1.446       .  S
C51          O64   1.271       .  A
C51          O56   1.279       .  A
C52         C949   1.444       .  S
C52          O79   1.275       .  A
Mg53         O60   2.149       .  S
Mg53         O61   2.161       .  S
Mg53         O54   2.301       .  S
Mg53         O55   2.304       .  S
Mg53         O82   2.268       .  S
O55          C59   1.271       .  A
O56         Mg63   2.339       .  S
O57          C76   1.271       .  A
O58          C78   1.277       .  A
O58         Mg74   2.325       .  S
O60         Mg74   2.165       .  S
O60          C71   1.235       .  S
O61         Mg80   2.157       .  S
O62         Mg74   2.301       .  S
Mg63         O79   2.300       .  S
O64         Mg80   2.268       .  S
H65          C70   1.081       .  S
O66         Mg74   2.160       .  S
O66          C69   1.236       .  S
H67          C69   1.081       .  S
H68          C71   1.081       .  S
O73         Mg80   2.298       .  S
C76         C961   1.439       .  S
C76          O81   1.272       .  A
O77          C78   1.271       .  A
C78         C956   1.443       .  S
O83         Mg85   2.157       .  S
O83         Mg91   2.158       .  S
O83         C118   1.236       .  S
C84         H123   1.081       .  S
C84          O97   1.235       .  S
C84         O121   1.269       .  A
Mg85        O114   2.163       .  S
Mg85        O129   2.320       .  S
Mg85        O125   2.286       .  S
Mg85         O96   2.299       .  S
O86        Mg128   2.167       .  S
O86        Mg111   2.155       .  S
O86         C107   1.236       .  S
O87         C118   1.271       .  A
O87        Mg111   2.303       .  S
C88         C941   1.440       .  S
C88          O90   1.272       .  A
C88         O102   1.273       .  A
O89         C117   1.270       .  A
O89         Mg91   2.297       .  S
O90        Mg122   2.283       .  S
Mg91         O97   2.149       .  S
Mg91        O105   2.268       .  S
Mg91         O93   2.299       .  S
C92         C929   1.441       .  S
C92         O130   1.270       .  A
C92          O98   1.275       .  A
O93         C100   1.273       .  A
H94         C107   1.081       .  S
C95         H120   1.081       .  S
C95         O109   1.236       .  S
C95         O110   1.271       .  A
O96         C119   1.270       .  A
O97        Mg111   2.160       .  S
O98        Mg128   2.318       .  S
C99         C945   1.446       .  S
C99         O112   1.274       .  A
C99         O104   1.276       .  A
C100        C937   1.439       .  S
C100        O127   1.272       .  A
Mg101       O108   2.151       .  S
Mg101       O109   2.159       .  S
Mg101       O102   2.300       .  S
Mg101       O103   2.299       .  S
Mg101       O130   2.266       .  S
O103        C107   1.270       .  A
O104       Mg111   2.317       .  S
O105        C124   1.271       .  A
O106        C126   1.276       .  A
O106       Mg122   2.319       .  S
O108       Mg122   2.160       .  S
O108        C119   1.236       .  S
O109       Mg128   2.161       .  S
O110       Mg122   2.305       .  S
Mg111       O127   2.281       .  S
O112       Mg128   2.291       .  S
H113        C118   1.081       .  S
O114       Mg122   2.153       .  S
O114        C117   1.236       .  S
H115        C117   1.081       .  S
H116        C119   1.081       .  S
O121       Mg128   2.296       .  S
C124        C977   1.441       .  S
C124        O129   1.276       .  A
O125        C126   1.274       .  A
C126        C933   1.445       .  S
N131        C136   1.356       .  A
N131        C135   1.357       .  A
N131        H163   1.036       .  S
N132        C139   1.353   1_565  A
N132        C140   1.354       .  A
N133        C138   1.354       .  A
N133        C137   1.354       .  A
N133        H164   1.037       .  S
N134        C141   1.355       .  A
N134        C142   1.355   1_545  A
C135        C143   1.387       .  A
C135        C151   1.421       .  A
C136        C152   1.421       .  A
C136        C144   1.388       .  A
C137        C145   1.387       .  A
C137        C154   1.415       .  A
C138        C153   1.418       .  A
C138        C146   1.390       .  A
C139        C151   1.417       .  A
C139        C147   1.387       .  A
C140        C154   1.416       .  A
C140        C148   1.386       .  A
C141        C149   1.388       .  A
C141        C152   1.421       .  A
C142        C150   1.386       .  A
C142        C153   1.419       .  A
C143        C144   1.376       .  A
C143        H155   1.082       .  S
C144        H156   1.082       .  S
C145        C146   1.373       .  A
C145        H157   1.082       .  S
C146        H158   1.082       .  S
C147        C148   1.374   1_545  A
C147        H159   1.082       .  S
C148        H160   1.082       .  S
C149        C150   1.377   1_545  A
C149        H161   1.082       .  S
C150        H162   1.082       .  S
C151        C921   1.462       .  S
C152        C968   1.462       .  S
C153        C917   1.457       .  S
C154        C928   1.455       .  S
O165       Mg167   2.157       .  S
O165       Mg173   2.158       .  S
O165        C200   1.236       .  S
C166        H205   1.081       .  S
C166        O179   1.236       .  S
C166        O203   1.270       .  A
Mg167       O196   2.160       .  S
Mg167       O211   2.305       .  S
Mg167       O207   2.272       .  S
Mg167       O178   2.297       .  S
O168       Mg210   2.162       .  S
O168       Mg193   2.164       .  S
O168        C189   1.237       .  S
O169        C200   1.270       .  A
O169       Mg193   2.302       .  S
C170        C909   1.450       .  S
C170        O172   1.276       .  A
C170        O184   1.276       .  A
O171        C199   1.272       .  A
O171       Mg173   2.306       .  S
O172       Mg204   2.302       .  S
Mg173       O179   2.151       .  S
Mg173       O187   2.277       .  S
Mg173       O175   2.320       .  S
C174        C901   1.441       .  S
C174        O212   1.273       .  A
C174        O180   1.273       .  A
O175        C182   1.276       .  A
H176        C189   1.081       .  S
C177        H202   1.081       .  S
C177        O191   1.235       .  S
C177        O192   1.269       .  A
O178        C201   1.270       .  A
O179       Mg193   2.164       .  S
O180       Mg210   2.304       .  S
C181        C916   1.443       .  S
C181        O194   1.271       .  A
C181        O186   1.276       .  A
C182        C905   1.449       .  S
C182        O209   1.275       .  A
Mg183       O190   2.154       .  S
Mg183       O191   2.158       .  S
Mg183       O184   2.322       .  S
Mg183       O185   2.304       .  S
Mg183       O212   2.286       .  S
O185        C189   1.272       .  A
O186       Mg193   2.324       .  S
O187        C206   1.272       .  A
O188        C208   1.276       .  A
O188       Mg204   2.321       .  S
O190       Mg204   2.165       .  S
O190        C201   1.236       .  S
O191       Mg210   2.151       .  S
O192       Mg204   2.296       .  S
Mg193       O209   2.299       .  S
O194       Mg210   2.271       .  S
H195        C200   1.081       .  S
O196       Mg204   2.167       .  S
O196        C199   1.237       .  S
H197        C199   1.081       .  S
H198        C201   1.081       .  S
O203       Mg210   2.297       .  S
C206        C925   1.439       .  S
C206        O211   1.273       .  A
O207        C208   1.271       .  A
C208        C897   1.442       .  S
N213        C218   1.355       .  A
N213        C217   1.354       .  A
N213        H245   1.037       .  S
N214        C221   1.352       .  A
N214        C222   1.353   1_655  A
N215        C220   1.356       .  A
N215        C219   1.357       .  A
N215        H246   1.037       .  S
N216        C223   1.354   1_455  A
N216        C224   1.353       .  A
C217        C225   1.388       .  A
C217        C233   1.414       .  A
C218        C234   1.416       .  A
C218        C226   1.388       .  A
C219        C227   1.387       .  A
C219        C236   1.419       .  A
C220        C235   1.419       .  A
C220        C228   1.388       .  A
C221        C233   1.414       .  A
C221        C229   1.387       .  A
C222        C236   1.415       .  A
C222        C230   1.387       .  A
C223        C231   1.386       .  A
C223        C234   1.416       .  A
C224        C232   1.388       .  A
C224        C235   1.418       .  A
C225        C226   1.373       .  A
C225        H237   1.082       .  S
C226        H238   1.082       .  S
C227        C228   1.376       .  A
C227        H239   1.082       .  S
C228        H240   1.082       .  S
C229        C230   1.374   1_655  A
C229        H241   1.082       .  S
C230        H242   1.082       .  S
C231        C232   1.376   1_655  A
C231        H243   1.082       .  S
C232        H244   1.082       .  S
C233        C892   1.452       .  S
C234        C913   1.458       .  S
C235        C885   1.459       .  S
C236        C896   1.460       .  S
O247       Mg249   2.153       .  S
O247       Mg255   2.157       .  S
O247        C282   1.235       .  S
C248        H287   1.081       .  S
C248        O261   1.235       .  S
C248        O285   1.270       .  A
Mg249       O278   2.164       .  S
Mg249       O293   2.316       .  S
Mg249       O289   2.265       .  S
Mg249       O260   2.297       .  S
O250       Mg292   2.169       .  S
O250       Mg275   2.170       .  S
O250        C271   1.236       .  S
O251        C282   1.270       .  A
O251       Mg275   2.301       .  S
C252        C893   1.445       .  S
C252        O254   1.275       .  A
C252        O266   1.273       .  A
O253        C281   1.271       .  A
O253       Mg255   2.302       .  S
O254       Mg286   2.297       .  S
Mg255       O261   2.146       .  S
Mg255       O269   2.261       .  S
Mg255       O257   2.301       .  S
C256        C869   1.445       .  S
C256        O294   1.270       .  A
C256        O262   1.276       .  A
O257        C264   1.273       .  A
H258        C271   1.081       .  S
C259        H284   1.081       .  S
C259        O273   1.235       .  S
C259        O274   1.269       .  A
O260        C283   1.270       .  A
O261       Mg275   2.161       .  S
O262       Mg292   2.327       .  S
C263        C877   1.435       .  S
C263        O276   1.271       .  A
C263        O268   1.275       .  A
C264        C865   1.445       .  S
C264        O291   1.275       .  A
Mg265       O272   2.150       .  S
Mg265       O273   2.154       .  S
Mg265       O266   2.303       .  S
Mg265       O267   2.304       .  S
Mg265       O294   2.270       .  S
O267        C271   1.271       .  A
O268       Mg275   2.313       .  S
O269        C288   1.269       .  A
O270        C290   1.276       .  A
O270       Mg286   2.315       .  S
O272       Mg286   2.165       .  S
O272        C283   1.236       .  S
O273       Mg292   2.147       .  S
O274       Mg286   2.297       .  S
Mg275       O291   2.302       .  S
O276       Mg292   2.258       .  S
H277        C282   1.081       .  S
O278       Mg286   2.164       .  S
O278        C281   1.236       .  S
H279        C281   1.081       .  S
H280        C283   1.081       .  S
O285       Mg292   2.298       .  S
C288        C881   1.439       .  S
C288        O293   1.275       .  A
O289        C290   1.271       .  A
C290        C873   1.438       .  S
N295        C300   1.354       .  A
N295        C299   1.356       .  A
N295        H327   1.033       .  S
N296        C303   1.353   1_545  A
N296        C304   1.353       .  A
N297        C302   1.356       .  A
N297        C301   1.356       .  A
N297        H328   1.034       .  S
N298        C305   1.355       .  A
N298        C306   1.355   1_565  A
C299        C307   1.387       .  A
C299        C315   1.419       .  A
C300        C316   1.418       .  A
C300        C308   1.388       .  A
C301        C309   1.386       .  A
C301        C318   1.419       .  A
C302        C317   1.422       .  A
C302        C310   1.389       .  A
C303        C315   1.414       .  A
C303        C311   1.387       .  A
C304        C318   1.415       .  A
C304        C312   1.387       .  A
C305        C313   1.387       .  A
C305        C316   1.420       .  A
C306        C314   1.387       .  A
C306        C317   1.420       .  A
C307        C308   1.377       .  A
C307        H319   1.082       .  S
C308        H320   1.082       .  S
C309        C310   1.379       .  A
C309        H321   1.082       .  S
C310        H322   1.082       .  S
C311        C312   1.370   1_565  A
C311        H323   1.082       .  S
C312        H324   1.082       .  S
C313        C314   1.375   1_565  A
C313        H325   1.082       .  S
C314        H326   1.082       .  S
C315        C884   1.456       .  S
C316        C864   1.458       .  S
C317        C948   1.461       .  S
C318        C860   1.459       .  S
N329        C334   1.351   1_554  A
N329        C333   1.354       .  A
N329        H361   1.037       .  S
N330        C337   1.351       .  A
N330        C338   1.350       .  A
N331        C336   1.356   1_554  A
N331        C335   1.355       .  A
N331        H362   1.037       .  S
N332        C339   1.353       .  A
N332        C340   1.354       .  A
C333        C341   1.387       .  A
C333        C349   1.413       .  A
C334        C350   1.413       .  A
C334        C342   1.388       .  A
C335        C343   1.387       .  A
C335        C352   1.417       .  A
C336        C351   1.419       .  A
C336        C344   1.388       .  A
C337        C349   1.409       .  A
C337        C345   1.386       .  A
C338        C352   1.411       .  A
C338        C346   1.388       .  A
C339        C347   1.387       .  A
C339        C350   1.415       .  A
C340        C348   1.387       .  A
C340        C351   1.416       .  A
C341        C342   1.376   1_554  A
C341        H353   1.082       .  S
C342        H354   1.082       .  S
C343        C344   1.379   1_554  A
C343        H355   1.082       .  S
C344        H356   1.082       .  S
C345        C346   1.372       .  A
C345        H357   1.082       .  S
C346        H358   1.082       .  S
C347        C348   1.376       .  A
C347        H359   1.082       .  S
C348        H360   1.082       .  S
C349        C856   1.452       .  S
C350        C880   1.451       .  S
C351        C849   1.462       .  S
C352        C964   1.453       .  S
N363        C368   1.352       .  A
N363        C367   1.354   1_554  A
N363        H395   1.038       .  S
N364        C371   1.354       .  A
N364        C372   1.352       .  A
N365        C370   1.357   1_556  A
N365        C369   1.356       .  A
N365        H396   1.036   1_556  S
N366        C373   1.354       .  A
N366        C374   1.354       .  A
C367        C375   1.386       .  A
C367        C383   1.412       .  A
C368        C384   1.414       .  A
C368        C376   1.389       .  A
C369        C377   1.388       .  A
C369        C386   1.422       .  A
C370        C385   1.423       .  A
C370        C378   1.388       .  A
C371        C383   1.413       .  A
C371        C379   1.385       .  A
C372        C386   1.417       .  A
C372        C380   1.389       .  A
C373        C381   1.386       .  A
C373        C384   1.416       .  A
C374        C382   1.388       .  A
C374        C385   1.420       .  A
C375        C376   1.373   1_556  A
C375        H387   1.082       .  S
C376        H388   1.082       .  S
C377        C378   1.379   1_556  A
C377        H389   1.082       .  S
C378        H390   1.082       .  S
C379        C380   1.372       .  A
C379        H391   1.082       .  S
C380        H392   1.082       .  S
C381        C382   1.376       .  A
C381        H393   1.082       .  S
C382        H394   1.082       .  S
C383        C944   1.455       .  S
C384        C841   1.453       .  S
C385        C912   1.464       .  S
C386        C848   1.457       .  S
O397       Mg399   2.154       .  S
O397       Mg405   2.164       .  S
O397        C432   1.237       .  S
C398        H437   1.081       .  S
C398        O411   1.235       .  S
C398        O435   1.270       .  A
Mg399       O428   2.159       .  S
Mg399       O443   2.322       .  S
Mg399       O439   2.284       .  S
Mg399       O410   2.303       .  S
O400       Mg442   2.159       .  S
O400       Mg425   2.148       .  S
O400        C421   1.235       .  S
O401        C432   1.271       .  A
O401       Mg425   2.300       .  S
C402        C889   1.436       .  S
C402        O404   1.271       .  A
C402        O416   1.272       .  A
O403        C431   1.269       .  A
O403       Mg405   2.296       .  S
O404       Mg436   2.271       .  S
Mg405       O411   2.156       .  S
Mg405       O419   2.269       .  S
Mg405       O407   2.292       .  S
C406        C836   1.446       .  S
C406        O444   1.272       .  A
C406        O412   1.278       .  A
O407        C414   1.271       .  A
H408        C421   1.081       .  S
C409        H434   1.081       .  S
C409        O423   1.236       .  S
C409        O424   1.271       .  A
O410        C433   1.270       .  A
O411       Mg425   2.161       .  S
O412       Mg442   2.334       .  S
C413        C845   1.442       .  S
C413        O426   1.275       .  A
C413        O418   1.274       .  A
C414        C832   1.436       .  S
C414        O441   1.271       .  A
Mg415       O422   2.167       .  S
Mg415       O423   2.161       .  S
Mg415       O416   2.293       .  S
Mg415       O417   2.295       .  S
Mg415       O444   2.275       .  S
O417        C421   1.269       .  A
O418       Mg425   2.307       .  S
O419        C438   1.271       .  A
O420        C440   1.276       .  A
O420       Mg436   2.323       .  S
O422       Mg436   2.166       .  S
O422        C433   1.235       .  S
O423       Mg442   2.157       .  S
O424       Mg436   2.303       .  S
Mg425       O441   2.273       .  S
O426       Mg442   2.290       .  S
H427        C432   1.081       .  S
O428       Mg436   2.147       .  S
O428        C431   1.235       .  S
H429        C431   1.081       .  S
H430        C433   1.081       .  S
O435       Mg442   2.300       .  S
C438        C861   1.442       .  S
C438        O443   1.276       .  A
O439        C440   1.273       .  A
C440        C840   1.446       .  S
N445        C450   1.357       .  A
N445        C449   1.357       .  A
N445        H477   1.035       .  S
N446        C453   1.354   1_545  A
N446        C454   1.355       .  A
N447        C452   1.354       .  A
N447        C451   1.353       .  A
N447        H478   1.037       .  S
N448        C455   1.352   1_545  A
N448        C456   1.354       .  A
C449        C457   1.388       .  A
C449        C465   1.423       .  A
C450        C466   1.422       .  A
C450        C458   1.387       .  A
C451        C459   1.388       .  A
C451        C468   1.414       .  A
C452        C467   1.413       .  A
C452        C460   1.387       .  A
C453        C465   1.419       .  A
C453        C461   1.388       .  A
C454        C468   1.417       .  A
C454        C462   1.386       .  A
C455        C463   1.388       .  A
C455        C466   1.417       .  A
C456        C464   1.386       .  A
C456        C467   1.414       .  A
C457        C458   1.379       .  A
C457        H469   1.082       .  S
C458        H470   1.082       .  S
C459        C460   1.374       .  A
C459        H471   1.082       .  S
C460        H472   1.082       .  S
C461        C462   1.376   1_565  A
C461        H473   1.082       .  S
C462        H474   1.082       .  S
C463        C464   1.373   1_565  A
C463        H475   1.082       .  S
C464        H476   1.082       .  S
C465        C908   1.463       .  S
C466        C837   1.461       .  S
C467        C940   1.454       .  S
C468        C828   1.455       .  S
O479       Mg481   2.168       .  S
O479       Mg487   2.162       .  S
O479        C514   1.235       .  S
C480        H519   1.081       .  S
C480        O493   1.235       .  S
C480        O517   1.269       .  A
Mg481       O510   2.160       .  S
Mg481       O525   2.289       .  S
Mg481       O521   2.277       .  S
Mg481       O492   2.295       .  S
O482       Mg524   2.162       .  S
O482       Mg507   2.159       .  S
O482        C503   1.236       .  S
O483        C514   1.270       .  A
O483       Mg507   2.303       .  S
C484        C969   1.443       .  S
C484        O486   1.273       .  A
C484        O498   1.276       .  A
O485        C513   1.272       .  A
O485       Mg487   2.307       .  S
O486       Mg518   2.280       .  S
Mg487       O493   2.158       .  S
Mg487       O501   2.282       .  S
Mg487       O489   2.330       .  S
C488        C825   1.439       .  S
C488        O526   1.271       .  A
C488        O494   1.272       .  A
O489        C496   1.278       .  A
H490        C503   1.081       .  S
C491        H516   1.081       .  S
C491        O505   1.235       .  S
C491        O506   1.270       .  A
O492        C515   1.269       .  A
O493       Mg507   2.165       .  S
O494       Mg524   2.298       .  S
C495        C924   1.447       .  S
C495        O508   1.271       .  A
C495        O500   1.277       .  A
C496        C817   1.446       .  S
C496        O523   1.273       .  A
Mg497       O504   2.154       .  S
Mg497       O505   2.163       .  S
Mg497       O498   2.317       .  S
Mg497       O499   2.306       .  S
Mg497       O526   2.275       .  S
O499        C503   1.271       .  A
O500       Mg507   2.332       .  S
O501        C520   1.272       .  A
O502        C522   1.277       .  A
O502       Mg518   2.334       .  S
O504       Mg518   2.167       .  S
O504        C515   1.235       .  S
O505       Mg524   2.166       .  S
O506       Mg518   2.304       .  S
Mg507       O523   2.282       .  S
O508       Mg524   2.276       .  S
H509        C514   1.081       .  S
O510       Mg518   2.156       .  S
O510        C513   1.237       .  S
H511        C513   1.081       .  S
H512        C515   1.081       .  S
O517       Mg524   2.298       .  S
C520        C844   1.437       .  S
C520        O525   1.271       .  A
O521        C522   1.271       .  A
C522        C821   1.448       .  S
N527        C532   1.355   1_455  A
N527        C531   1.354       .  A
N527        H559   1.035       .  S
N528        C535   1.354       .  A
N528        C536   1.354       .  A
N529        C534   1.357       .  A
N529        C533   1.355   1_655  A
N529        H560   1.032       .  S
N530        C537   1.354       .  A
N530        C538   1.354       .  A
C531        C539   1.390       .  A
C531        C547   1.418       .  A
C532        C548   1.416       .  A
C532        C540   1.387       .  A
C533        C541   1.388       .  A
C533        C550   1.421       .  A
C534        C549   1.422       .  A
C534        C542   1.388       .  A
C535        C547   1.418       .  A
C535        C543   1.386       .  A
C536        C550   1.421       .  A
C536        C544   1.388       .  A
C537        C545   1.386       .  A
C537        C548   1.417       .  A
C538        C546   1.387       .  A
C538        C549   1.419       .  A
C539        C540   1.373   1_455  A
C539        H551   1.082       .  S
C540        H552   1.082       .  S
C541        C542   1.375   1_455  A
C541        H553   1.082       .  S
C542        H554   1.082       .  S
C543        C544   1.377       .  A
C543        H555   1.082       .  S
C544        H556   1.082       .  S
C545        C546   1.374       .  A
C545        H557   1.082       .  S
C546        H558   1.082       .  S
C547        C813   1.456       .  S
C548        C904   1.457       .  S
C549        C824   1.463       .  S
C550        C953   1.459       .  S
O561       Mg563   2.159       .  S
O561       Mg569   2.163       .  S
O561        C596   1.236       .  S
C562        H601   1.081       .  S
C562        O575   1.235       .  S
C562        O599   1.269       .  A
Mg563       O592   2.160       .  S
Mg563       O607   2.316       .  S
Mg563       O603   2.285       .  S
Mg563       O574   2.298       .  S
O564       Mg606   2.160       .  S
O564       Mg589   2.144       .  S
O564        C585   1.236       .  S
O565        C596   1.271       .  A
O565       Mg589   2.304       .  S
C566        C809   1.435       .  S
C566        O568   1.271       .  A
C566        O580   1.272       .  A
O567        C595   1.269       .  A
O567       Mg569   2.296       .  S
O568       Mg600   2.272       .  S
Mg569       O575   2.154       .  S
Mg569       O583   2.262       .  S
Mg569       O571   2.290       .  S
C570        C920   1.441       .  S
C570        O608   1.270       .  A
C570        O576   1.275       .  A
O571        C578   1.271       .  A
H572        C585   1.081       .  S
C573        H598   1.081       .  S
C573        O587   1.237       .  S
C573        O588   1.272       .  A
O574        C597   1.269       .  A
O575       Mg589   2.162       .  S
O576       Mg606   2.314       .  S
C577        C808   1.446       .  S
C577        O590   1.274       .  A
C577        O582   1.276       .  A
C578        C853   1.436       .  S
C578        O605   1.271       .  A
Mg579       O586   2.154       .  S
Mg579       O587   2.163       .  S
Mg579       O580   2.290       .  S
Mg579       O581   2.297       .  S
Mg579       O608   2.268       .  S
O581        C585   1.270       .  A
O582       Mg589   2.321       .  S
O583        C602   1.270       .  A
O584        C604   1.277       .  A
O584       Mg600   2.324       .  S
O586       Mg600   2.161       .  S
O586        C597   1.234       .  S
O587       Mg606   2.161       .  S
O588       Mg600   2.305       .  S
Mg589       O605   2.274       .  S
O590       Mg606   2.288       .  S
H591        C596   1.081       .  S
O592       Mg600   2.142       .  S
O592        C595   1.236       .  S
H593        C595   1.081       .  S
H594        C597   1.081       .  S
O599       Mg606   2.299       .  S
C602        C816   1.440       .  S
C602        O607   1.275       .  A
O603        C604   1.274       .  A
C604        C888   1.445       .  S
N609        C614   1.356       .  A
N609        C613   1.354       .  A
N609        H641   1.039       .  S
N610        C617   1.353   1_565  A
N610        C618   1.354       .  A
N611        C616   1.354       .  A
N611        C615   1.352       .  A
N611        H642   1.038       .  S
N612        C619   1.350   1_565  A
N612        C620   1.350       .  A
C613        C621   1.388       .  A
C613        C629   1.417       .  A
C614        C630   1.416       .  A
C614        C622   1.386       .  A
C615        C623   1.388       .  A
C615        C632   1.414       .  A
C616        C631   1.413       .  A
C616        C624   1.387       .  A
C617        C629   1.416       .  A
C617        C625   1.387       .  A
C618        C632   1.416       .  A
C618        C626   1.387       .  A
C619        C627   1.387       .  A
C619        C630   1.409       .  A
C620        C628   1.386       .  A
C620        C631   1.409       .  A
C621        C622   1.378       .  A
C621        H633   1.082       .  S
C622        H634   1.082       .  S
C623        C624   1.376       .  A
C623        H635   1.082       .  S
C624        H636   1.082       .  S
C625        C626   1.377   1_545  A
C625        H637   1.082       .  S
C626        H638   1.082       .  S
C627        C628   1.372   1_545  A
C627        H639   1.082       .  S
C628        H640   1.082       .  S
C629        C801   1.458       .  S
C630        C957   1.453       .  S
C631        C812   1.450       .  S
C632        C876   1.454       .  S
O643       Mg645   2.163       .  S
O643       Mg651   2.162       .  S
O643        C678   1.237       .  S
C644        H683   1.081       .  S
C644        O657   1.236       .  S
C644        O681   1.271       .  A
Mg645       O674   2.164       .  S
Mg645       O689   2.336       .  S
Mg645       O685   2.293       .  S
Mg645       O656   2.300       .  S
O646       Mg688   2.161       .  S
O646       Mg671   2.152       .  S
O646        C667   1.236       .  S
O647        C678   1.272       .  A
O647       Mg671   2.304       .  S
C648        C976   1.439       .  S
C648        O650   1.272       .  A
C648        O662   1.273       .  A
O649        C677   1.269       .  A
O649       Mg651   2.295       .  S
O650       Mg682   2.278       .  S
Mg651       O657   2.166       .  S
Mg651       O665   2.279       .  S
Mg651       O653   2.303       .  S
C652        C804   1.444       .  S
C652        O690   1.271       .  A
C652        O658   1.276       .  A
O653        C660   1.273       .  A
H654        C667   1.081       .  S
C655        H680   1.081       .  S
C655        O669   1.237       .  S
C655        O670   1.271       .  A
O656        C679   1.270       .  A
O657       Mg671   2.159       .  S
O658       Mg688   2.325       .  S
C659        C857   1.445       .  S
C659        O672   1.274       .  A
C659        O664   1.275       .  A
C660        C793   1.440       .  S
C660        O687   1.271       .  A
Mg661       O668   2.154       .  S
Mg661       O669   2.162       .  S
Mg661       O662   2.301       .  S
Mg661       O663   2.297       .  S
Mg661       O690   2.272       .  S
O663        C667   1.270       .  A
O664       Mg671   2.317       .  S
O665        C684   1.272       .  A
O666        C686   1.274       .  A
O666       Mg682   2.308       .  S
O668       Mg682   2.157       .  S
O668        C679   1.235       .  S
O669       Mg688   2.158       .  S
O670       Mg682   2.302       .  S
Mg671       O687   2.275       .  S
O672       Mg688   2.287       .  S
H673        C678   1.081       .  S
O674       Mg682   2.151       .  S
O674        C677   1.235       .  S
H675        C677   1.081       .  S
H676        C679   1.081       .  S
O681       Mg688   2.305       .  S
C684        C852   1.448       .  S
C684        O689   1.278       .  A
O685        C686   1.275       .  A
C686        C797   1.443       .  S
N691        C696   1.356   1_655  A
N691        C695   1.355       .  A
N691        H723   1.038       .  S
N692        C699   1.355       .  A
N692        C700   1.354       .  A
N693        C698   1.357       .  A
N693        C697   1.356   1_455  A
N693        H724   1.038       .  S
N694        C701   1.352       .  A
N694        C702   1.353       .  A
C695        C703   1.388       .  A
C695        C711   1.419       .  A
C696        C712   1.419       .  A
C696        C704   1.387       .  A
C697        C705   1.388       .  A
C697        C714   1.420       .  A
C698        C713   1.419       .  A
C698        C706   1.386       .  A
C699        C711   1.417       .  A
C699        C707   1.387       .  A
C700        C714   1.418       .  A
C700        C708   1.387       .  A
C701        C709   1.387       .  A
C701        C712   1.413       .  A
C702        C710   1.387       .  A
C702        C713   1.413       .  A
C703        C704   1.378   1_655  A
C703        H715   1.082       .  S
C704        H716   1.082       .  S
C705        C706   1.378   1_655  A
C705        H717   1.082       .  S
C706        H718   1.082       .  S
C707        C708   1.375       .  A
C707        H719   1.082       .  S
C708        H720   1.082       .  S
C709        C710   1.372       .  A
C709        H721   1.082       .  S
C710        H722   1.082       .  S
C711        C936   1.460       .  S
C712        C800   1.457       .  S
C713        C872   1.461       .  S
C714        C833   1.461       .  S
N725        C730   1.356       .  A
N725        C729   1.357       .  A
N725        H757   1.035       .  S
N726        C733   1.354       .  A
N726        C734   1.354   1_554  A
N727        C732   1.355       .  A
N727        C731   1.355       .  A
N727        H758   1.036       .  S
N728        C735   1.353   1_556  A
N728        C736   1.354       .  A
C729        C737   1.387       .  A
C729        C745   1.420       .  A
C730        C746   1.421       .  A
C730        C738   1.389       .  A
C731        C739   1.388       .  A
C731        C748   1.417       .  A
C732        C747   1.416       .  A
C732        C740   1.387       .  A
C733        C745   1.418       .  A
C733        C741   1.387       .  A
C734        C748   1.416       .  A
C734        C742   1.386       .  A
C735        C743   1.387       .  A
C735        C746   1.417       .  A
C736        C744   1.387       .  A
C736        C747   1.416       .  A
C737        C738   1.376       .  A
C737        H749   1.082       .  S
C738        H750   1.082       .  S
C739        C740   1.372       .  A
C739        H751   1.082       .  S
C740        H752   1.082       .  S
C741        C742   1.374   1_554  A
C741        H753   1.082       .  S
C742        H754   1.082       .  S
C743        C744   1.375   1_554  A
C743        H755   1.082       .  S
C744        H756   1.082       .  S
C745        C820   1.461       .  S
C746        C952   1.459       .  S
C747        C796   1.456       .  S
C748        C932   1.456       .  S
N759        C764   1.356   1_556  A
N759        C763   1.357       .  A
N759        H791   1.037       .  S
N760        C767   1.353       .  A
N760        C768   1.353       .  A
N761        C766   1.354       .  A
N761        C765   1.354   1_554  A
N761        H792   1.037       .  S
N762        C769   1.353       .  A
N762        C770   1.354       .  A
C763        C771   1.387       .  A
C763        C779   1.420       .  A
C764        C780   1.420       .  A
C764        C772   1.387       .  A
C765        C773   1.387       .  A
C765        C782   1.414       .  A
C766        C781   1.416       .  A
C766        C774   1.388       .  A
C767        C779   1.415       .  A
C767        C775   1.387       .  A
C768        C782   1.414       .  A
C768        C776   1.387       .  A
C769        C777   1.387       .  A
C769        C780   1.417       .  A
C770        C778   1.386       .  A
C770        C781   1.416       .  A
C771        C772   1.376   1_556  A
C771        H783   1.082       .  S
C772        H784   1.082       .  S
C773        C774   1.373   1_556  A
C773        H785   1.082       .  S
C774        H786   1.082       .  S
C775        C776   1.374       .  A
C775        H787   1.082       .  S
C776        H788   1.082       .  S
C777        C778   1.376       .  A
C777        H789   1.082       .  S
C778        H790   1.082       .  S
C779        C868   1.460       .  S
C780        C805   1.460       .  S
C781        C900   1.457       .  S
C782        C829   1.452       .  S
C793        C794   1.209       .  T
C794        C795   1.417       .  S
C795        C796   1.209       .  T
C797        C798   1.210       .  T
C798        C799   1.419       .  S
C799        C800   1.210       .  T
C801        C802   1.211       .  T
C802        C803   1.420       .  S
C803        C804   1.211       .  T
C805        C806   1.212       .  T
C806        C807   1.422       .  S
C807        C808   1.212       .  T
C809        C810   1.206       .  T
C810        C811   1.412       .  S
C811        C812   1.206       .  T
C813        C814   1.209       .  T
C814        C815   1.417       .  S
C815        C816   1.209       .  T
C817        C818   1.212       .  T
C818        C819   1.422       .  S
C819        C820   1.212       .  T
C821        C822   1.214       .  T
C822        C823   1.425       .  S
C823        C824   1.214       .  T
C825        C826   1.208       .  T
C826        C827   1.417       .  S
C827        C828   1.209       .  T
C829        C830   1.207       .  T
C830        C831   1.413       .  S
C831        C832   1.207       .  T
C833        C834   1.213       .  T
C834        C835   1.423       .  S
C835        C836   1.213       .  T
C837        C838   1.213       .  T
C838        C839   1.423       .  S
C839        C840   1.212       .  T
C841        C842   1.208       .  T
C842        C843   1.415       .  S
C843        C844   1.207       .  T
C845        C846   1.210       .  T
C846        C847   1.418       .  S
C847        C848   1.210       .  T
C849        C850   1.214       .  T
C850        C851   1.424       .  S
C851        C852   1.213       .  T
C853        C854   1.207       .  T
C854        C855   1.413       .  S
C855        C856   1.207       .  T
C857        C858   1.211       .  T
C858        C859   1.421       .  S
C859        C860   1.211       .  T
C861        C862   1.210       .  T
C862        C863   1.419       .  S
C863        C864   1.211       .  T
C865        C866   1.212       .  T
C866        C867   1.422       .  S
C867        C868   1.212       .  T
C869        C870   1.212       .  T
C870        C871   1.422       .  S
C871        C872   1.213       .  T
C873        C874   1.208       .  T
C874        C875   1.416       .  S
C875        C876   1.208       .  T
C877        C878   1.206       .  T
C878        C879   1.412       .  S
C879        C880   1.206       .  T
C881        C882   1.209       .  T
C882        C883   1.417       .  S
C883        C884   1.209       .  T
C885        C886   1.212       .  T
C886        C887   1.421       .  S
C887        C888   1.211       .  T
C889        C890   1.206       .  T
C890        C891   1.413       .  S
C891        C892   1.207       .  T
C893        C894   1.211       .  T
C894        C895   1.421       .  S
C895        C896   1.212       .  T
C897        C898   1.210       .  T
C898        C899   1.419       .  S
C899        C900   1.210       .  T
C901        C902   1.210       .  T
C902        C903   1.418       .  S
C903        C904   1.210       .  T
C905        C906   1.214       .  T
C906        C907   1.425       .  S
C907        C908   1.214       .  T
C909        C910   1.214       .  T
C910        C911   1.426       .  S
C911        C912   1.215       .  T
C913        C914   1.211       .  T
C914        C915   1.420       .  S
C915        C916   1.210       .  T
C917        C918   1.210       .  T
C918        C919   1.418       .  S
C919        C920   1.209       .  T
C921        C922   1.213       .  T
C922        C923   1.423       .  S
C923        C924   1.213       .  T
C925        C926   1.208       .  T
C926        C927   1.416       .  S
C927        C928   1.209       .  T
C929        C930   1.209       .  T
C930        C931   1.417       .  S
C931        C932   1.209       .  T
C933        C934   1.212       .  T
C934        C935   1.422       .  S
C935        C936   1.212       .  T
C937        C938   1.208       .  T
C938        C939   1.416       .  S
C939        C940   1.208       .  T
C941        C942   1.209       .  T
C942        C943   1.417       .  S
C943        C944   1.209       .  T
C945        C946   1.212       .  T
C946        C947   1.423       .  S
C947        C948   1.213       .  T
C949        C950   1.211       .  T
C950        C951   1.420       .  S
C951        C952   1.211       .  T
C953        C954   1.211       .  T
C954        C955   1.420       .  S
C955        C956   1.211       .  T
C957        C958   1.208       .  T
C958        C959   1.416       .  S
C959        C960   1.208       .  T
C961        C962   1.208       .  T
C962        C963   1.416       .  S
C963        C964   1.208       .  T
C965        C966   1.213       .  T
C966        C967   1.423       .  S
C967        C968   1.213       .  T
C969        C970   1.210       .  T
C970        C971   1.419       .  S
C971        C972   1.211       .  T
C973        C974   1.209       .  T
C974        C975   1.416       .  S
C975        C976   1.208       .  T
C977        C978   1.209       .  T
C978        C979   1.418       .  S
C979        C980   1.210       .  T
C981        C982   1.212       .  T
C982        C983   1.421       .  S
C983        C984   1.211       .  T
