geometry optimzed in LAMMPS
_audit_creation_date              2020-11-30 
_audit_creation_method            'lammps2cif' 
_symmetry_space_group_name_H-M    'P1' 
_symmetry_Int_Tables_number       1 
_symmetry_cell_setting            triclinic 
loop_ 
_symmetry_equiv_pos_as_xyz 
  x,y,z 
_cell_length_a                    34.11237579 
_cell_length_b                    33.52478898252863 
_cell_length_c                    31.773397409864806 
_cell_angle_alpha                 90.45473773998116 
_cell_angle_beta                  90.7312995022251 
_cell_angle_gamma                 89.10743361324288 
loop_ 
_atom_site_label 
_atom_site_type_symbol 
_atom_site_fract_x 
_atom_site_fract_y 
_atom_site_fract_z 
_atom_site_charge 
O1          O  0.96814966  0.04945470  0.21299793    -0.75100
O2          O  0.04714786  0.96905213  0.19936348    -0.75100
O3          O  0.96866187  0.96914603  0.20454617    -0.75200
O4          O  0.04723769  0.04886362  0.20752560    -0.75200
O5          O  0.05386467  0.04132819  0.27682771    -0.75200
O6          O  0.97150945  0.96437887  0.27434080    -0.75100
O7          O  0.05070638  0.96186004  0.26918306    -0.75100
O8          O  0.97399216  0.04457039  0.28288192    -0.75200
Ni9        Ni  0.00756931  0.00947697  0.20366370     1.25400
Ni10       Ni  0.01265393  0.00296217  0.27838521     1.25400
C11         C  0.95776475  0.05977007  0.25011437     0.87100
C12         C  0.06155984  0.95213442  0.23210999     0.87000
C13         C  0.95684001  0.95364105  0.23871642     0.87000
C14         C  0.06491664  0.05684354  0.24225435     0.87200
O15         O  0.20346772  0.31581475  0.23897452    -0.81600
O16         O  0.26568230  0.17074698  0.14250963    -0.66200
O17         O  0.24436357  0.24438998  0.22959537    -1.12800
C18         C  0.34926065  0.31793910  0.18276505     1.05300
O19         O  0.32963606  0.18130548  0.13424479    -0.79500
O20         O  0.34603380  0.21100156  0.21353785    -0.67000
Ni21       Ni  0.19147381  0.26034887  0.24081476     1.34900
C22         C  0.34215061  0.23208110  0.24667190     0.84100
O23         O  0.21943263  0.16832474  0.20882093    -0.80000
O24         O  0.17524503  0.20607940  0.24318962    -0.90300
C25         C  0.29832214  0.16258611  0.12597456     0.83600
O26         O  0.17160624  0.26396848  0.18492110    -0.68500
O27         O  0.36362450  0.28308161  0.17687662    -0.87800
C28         C  0.18190789  0.24694795  0.15108349     0.84500
C29         C  0.18781302  0.17242140  0.22964777     1.06000
H30         H  0.27851416  0.25875689  0.13893691     0.37800
O31         O  0.28858499  0.24769171  0.16498808    -1.10400
O32         O  0.32039539  0.26345312  0.24685978    -0.67100
Ni33       Ni  0.27884377  0.28422487  0.21007800     1.26300
O34         O  0.21293827  0.22567993  0.14795953    -0.67300
O35         O  0.31303967  0.32382087  0.18928182    -0.79600
C36         C  0.23114502  0.33076546  0.26039007     0.83900
O37         O  0.26615516  0.31908062  0.25522817    -0.66800
Ni38       Ni  0.34257227  0.23245256  0.15798728     1.27400
Ni39       Ni  0.25404376  0.20731098  0.18596902     1.26100
H40         H  0.25481866  0.23304345  0.25531182     0.38400
O41         O  0.68434374  0.19141048  0.25321801    -0.81600
O42         O  0.82161943  0.23707698  0.14238575    -0.66200
O43         O  0.75735411  0.22677579  0.23871949    -1.12800
C44         C  0.69578635  0.34100336  0.18695876     1.05300
O45         O  0.83247394  0.29950006  0.15915565    -0.79500
O46         O  0.79520543  0.32944832  0.22850482    -0.67000
Ni47       Ni  0.73930194  0.17608603  0.25565302     1.34900
C48         C  0.77324160  0.32708643  0.26027200     0.84100
O49         O  0.82389000  0.18674747  0.20830602    -0.80000
O50         O  0.79283646  0.15909300  0.26234956    -0.90300
C51         C  0.84079725  0.26867585  0.13701257     0.83600
O52         O  0.73649260  0.14944403  0.20112244    -0.68500
O53         O  0.73095654  0.35077914  0.17829790    -0.87800
C54         C  0.74497770  0.15987448  0.16380357     0.84500
C55         C  0.82301660  0.16321080  0.23967209     1.06000
H56         H  0.74262250  0.26661528  0.14911571     0.37800
O57         O  0.75602040  0.27263164  0.17537035    -1.10400
O58         O  0.74286709  0.30555529  0.25905136    -0.67100
Ni59       Ni  0.72062014  0.26641622  0.22056017     1.26300
O60         O  0.76004999  0.19342877  0.15580234    -0.67300
O61         O  0.68631449  0.30669531  0.19997188    -0.79600
C62         C  0.67077536  0.22248674  0.27179979     0.83900
O63         O  0.68517107  0.25646990  0.26512468    -0.66800
Ni64       Ni  0.78075412  0.32281509  0.17022130     1.27400
Ni65       Ni  0.78992642  0.22974935  0.19072530     1.26100
H66         H  0.77209899  0.23731361  0.26233236     0.38400
O67         O  0.83222945  0.68366958  0.16951471    -0.81600
O68         O  0.70003832  0.74595571  0.27606340    -0.66200
O69         O  0.76237646  0.72632942  0.18114403    -1.12800
C70         C  0.83395192  0.83616249  0.22740905     1.05300
O71         O  0.69752704  0.81165256  0.26539694    -0.79500
O72         O  0.73120954  0.83224415  0.19097315    -0.67000
Ni73       Ni  0.77685698  0.67310660  0.16632248     1.34900
C74         C  0.75247708  0.82850536  0.15865574     0.84100
O75         O  0.69334457  0.69345528  0.21260731    -0.80000
O76         O  0.72242688  0.66021091  0.16031920    -0.90300
C77         C  0.68571809  0.78026938  0.28340814     0.83600
O78         O  0.77823108  0.64811788  0.22108700    -0.68500
O79         O  0.79962890  0.84989129  0.23519408    -0.87800
C80         C  0.76999196  0.66029576  0.25806516     0.84500
C81         C  0.69273903  0.66699078  0.18336888     1.06000
H82         H  0.78150795  0.76706357  0.26958474     0.37800
O83         O  0.76817355  0.77406096  0.24359863    -1.10400
O84         O  0.78160884  0.80405305  0.15917818    -0.67100
Ni85       Ni  0.80201900  0.76305247  0.19799900     1.26300
O86         O  0.75753800  0.69573669  0.26510963    -0.67300
O87         O  0.84064163  0.79990008  0.21726558    -0.79600
C88         C  0.84736610  0.71207927  0.14925085     0.83900
O89         O  0.83510556  0.74765671  0.15354861    -0.66800
Ni90       Ni  0.74910931  0.82762918  0.24840629     1.27400
Ni91       Ni  0.73068849  0.73402261  0.22884702     1.26100
H92         H  0.74825953  0.73730399  0.15723558     0.38400
O93         O  0.31386698  0.81567300  0.15910487    -0.81600
O94         O  0.25474566  0.68009127  0.26558442    -0.66200
O95         O  0.27724424  0.74423078  0.17263062    -1.12800
C96         C  0.16918783  0.82081146  0.22210505     1.05300
O97         O  0.19233546  0.68100509  0.24686008    -0.79500
O98         O  0.15878039  0.72837862  0.18804728    -0.67000
Ni99       Ni  0.32890345  0.76061454  0.16130779     1.34900
C100        C  0.17146311  0.73752937  0.15212645     0.84100
O101        O  0.30448347  0.67199661  0.20142939    -0.80000
O102        O  0.34674726  0.70643558  0.16296572    -0.90300
C103        C  0.22016228  0.66801211  0.26996074     0.83600
O104        O  0.34827205  0.76856775  0.21681005    -0.68500
O105        O  0.15925242  0.79029434  0.24280481    -0.87800
C106        C  0.33800297  0.75503457  0.25192536     0.84500
C107        C  0.33501564  0.67401918  0.17896725     1.06000
H108        H  0.23940222  0.76688352  0.25833748     0.37800
O109        O  0.23010141  0.75228048  0.23362905    -1.10400
O110        O  0.20291076  0.75679171  0.14810287    -0.67100
Ni111      Ni  0.23885751  0.78378695  0.18572080     1.26300
O112        O  0.30701308  0.73486372  0.25681530    -0.67300
O113        O  0.19951791  0.82255722  0.19936161    -0.79600
C114        C  0.28583845  0.82803874  0.13596440     0.83900
O115        O  0.25171116  0.81458079  0.13903487    -0.66800
Ni116      Ni  0.17767290  0.73626782  0.24435790     1.27400
Ni117      Ni  0.26775817  0.71182255  0.21922441     1.26100
H118        H  0.26882004  0.72964913  0.14791189     0.38400
O119        O  0.33812146  0.93917728  0.90814553    -0.75100
O120        O  0.33971317  0.02828829  0.98390598    -0.75100
O121        O  0.33724185  0.94891190  0.99160527    -0.75200
O122        O  0.34162734  0.01978036  0.89945772    -0.75200
O123        O  0.27616028  0.02441052  0.89823020    -0.75200
O124        O  0.27172980  0.95061048  0.98758288    -0.75100
O125        O  0.27429083  0.02961309  0.98272293    -0.75100
O126        O  0.27297070  0.94454141  0.90372180    -0.75200
Ni127      Ni  0.34163382  0.98399030  0.94562227     1.25400
Ni128      Ni  0.27146742  0.98749401  0.94278906     1.25400
C129        C  0.30498806  0.92637726  0.89476679     0.87100
C130        C  0.30693829  0.04257476  0.99686890     0.87000
C131        C  0.30377239  0.93823747  0.00451778     0.87000
C132        C  0.30962872  0.03442745  0.88452591     0.87200
O133        O  0.05775911  0.23353929  0.99437248    -0.75100
O134        O  0.97980611  0.24490632  0.90679277    -0.75100
O135        O  0.05934266  0.23923109  0.90904629    -0.75200
O136        O  0.97806078  0.23913011  0.99168299    -0.75200
O137        O  0.98256445  0.30433897  0.99914093    -0.75200
O138        O  0.06230324  0.30544770  0.91423306    -0.75100
O139        O  0.98259038  0.31097777  0.91351097    -0.75100
O140        O  0.06211355  0.29968579  0.99949181    -0.75200
Ni141      Ni  0.01870810  0.23688503  0.95027581     1.25400
Ni142      Ni  0.02250843  0.30747152  0.95675180     1.25400
C143        C  0.07263659  0.26471271  0.01145175     0.87100
C144        C  0.96794736  0.27987746  0.89607034     0.87000
C145        C  0.07394893  0.27237607  0.89764292     0.87000
C146        C  0.96663506  0.27151806  0.00963785     0.87200
O147        O  0.70386511  0.95547426  0.00317357    -0.75100
O148        O  0.69931806  0.03795370  0.91747585    -0.75100
O149        O  0.70258282  0.95596551  0.91701417    -0.75200
O150        O  0.70065504  0.03671097  0.00480457    -0.75200
O151        O  0.76580605  0.03757859  0.00453646    -0.75200
O152        O  0.76715841  0.95922026  0.91528326    -0.75100
O153        O  0.76446239  0.04048017  0.91814728    -0.75100
O154        O  0.76899849  0.95626503  0.00174976    -0.75200
Ni155      Ni  0.69930057  0.99659272  0.96052105     1.25400
Ni156      Ni  0.76882456  0.99846222  0.95989662     1.25400
C157        C  0.73723462  0.94243098  0.01695844     0.87100
C158        C  0.73118992  0.05264893  0.90334419     0.87000
C159        C  0.73523452  0.94403475  0.90131490     0.87000
C160        C  0.73314664  0.04938760  0.02033966     0.87200
O161        O  0.05128408  0.67689867  0.99899545    -0.75100
O162        O  0.96823995  0.67157181  0.91588060    -0.75100
O163        O  0.04720176  0.67604084  0.91405476    -0.75200
O164        O  0.97242406  0.67195373  0.00159666    -0.75200
O165        O  0.96645481  0.73833037  0.00059778    -0.75200
O166        O  0.04333128  0.74263040  0.91547112    -0.75100
O167        O  0.96462634  0.73804272  0.91546429    -0.75100
O168        O  0.04506045  0.74317983  0.00019022    -0.75200
Ni169      Ni  0.00990373  0.67167521  0.95760453     1.25400
Ni170      Ni  0.00466430  0.74288101  0.95790497     1.25400
C171        C  0.06162670  0.71105196  0.01345549     0.87100
C172        C  0.95303321  0.70414036  0.90172235     0.87000
C173        C  0.05742113  0.71004469  0.90048225     0.87000
C174        C  0.95768996  0.70453334  0.01596815     0.87200
O175        O  0.31034738  0.76844265  0.77119527    -0.81600
O176        O  0.24521199  0.69406793  0.61002821    -0.66200
O177        O  0.27214868  0.76961057  0.69379332    -1.12800
C178        C  0.16224480  0.71750718  0.76288456     1.05300
O179        O  0.18441988  0.71416610  0.61435154    -0.79500
O180        O  0.15337530  0.76495789  0.67147127    -0.67000
Ni181      Ni  0.32497927  0.77321408  0.71340201     1.34900
C182        C  0.16688105  0.79552064  0.69017705     0.84100
O183        O  0.29588216  0.75383648  0.61358429    -0.80000
O184        O  0.34236331  0.77869283  0.65670595    -0.90300
C185        C  0.20958112  0.68949382  0.60064519     0.83600
O186        O  0.34064810  0.71843712  0.71278523    -0.68500
O187        O  0.15059149  0.70458329  0.72716768    -0.93000
C188        C  0.32861852  0.68919522  0.69107317     0.84500
C189        C  0.32821569  0.77119751  0.62010993     1.06000
H190        H  0.23035875  0.68817542  0.70148256     0.37800
O191        O  0.22212655  0.71390157  0.69077935    -1.10400
O192        O  0.19841708  0.79427480  0.71198067    -0.67100
Ni193      Ni  0.23379525  0.75284298  0.73242509     1.26300
O194        O  0.29782105  0.69106427  0.66800943    -0.67300
O195        O  0.19444142  0.73536346  0.76970134    -0.79600
C196        C  0.28450465  0.79144536  0.78689343     0.83900
O197        O  0.24959223  0.79105868  0.77298743    -0.66800
Ni198      Ni  0.16889281  0.70970861  0.67122441     1.27400
Ni199      Ni  0.25980431  0.73217270  0.65130785     1.26100
H200        H  0.26485303  0.79573359  0.68338687     0.38400
O201        O  0.96312167  0.94817462  0.72113588    -0.75100
O202        O  0.04425768  0.02532869  0.73079256    -0.75100
O203        O  0.96411951  0.02818000  0.72754195    -0.75200
O204        O  0.04238598  0.94421460  0.72385433    -0.75200
O205        O  0.04517101  0.94914892  0.65464109    -0.75200
O206        O  0.96644686  0.03324677  0.65828679    -0.75100
O207        O  0.04605834  0.02963301  0.66084678    -0.75100
O208        O  0.96509597  0.95238038  0.65112724    -0.75200
Ni209      Ni  0.00357525  0.98635867  0.72829513     1.25400
Ni210      Ni  0.00576467  0.99123022  0.65374002     1.25400
C211        C  0.95042466  0.93816752  0.68460168     0.87100
C212        C  0.05841251  0.04023197  0.69733815     0.87000
C213        C  0.95132642  0.04419763  0.69342821     0.87000
C214        C  0.05706585  0.93252105  0.68882858     0.87200
O215        O  0.32243446  0.17601863  0.74780819    -0.81600
O216        O  0.24650515  0.31266914  0.64143816    -0.66200
O217        O  0.27722834  0.24546181  0.73143637    -1.12800
C218        C  0.17013457  0.16751198  0.69426679     1.05300
O219        O  0.18202144  0.30351150  0.64318050    -0.79500
O220        O  0.17154603  0.27386030  0.72217440    -0.67000
Ni221      Ni  0.33154290  0.23193716  0.73998128     1.34900
C222        C  0.17967321  0.25536559  0.75595677     0.84100
O223        O  0.29732654  0.32108774  0.70424887    -0.80000
O224        O  0.34679457  0.28644460  0.73383200    -0.90300
C225        C  0.21187239  0.32107174  0.62950832     0.83600
O226        O  0.34517892  0.22143893  0.68306293    -0.68500
O227        O  0.15491204  0.20134728  0.68589964    -0.87800
C228        C  0.33373256  0.23815886  0.64935694     0.84500
C229        C  0.33166014  0.31892364  0.72027847     1.06000
H230        H  0.23579200  0.22513125  0.64425183     0.37800
O231        O  0.22773265  0.23754759  0.67031851    -1.10400
O232        O  0.20358257  0.22570178  0.75572433    -0.67100
Ni233      Ni  0.24202934  0.20389741  0.71638655     1.26300
O234        O  0.30271533  0.25995658  0.64703154    -0.67300
O235        O  0.20671898  0.16263189  0.70034172    -0.79600
C236        C  0.29415964  0.15974148  0.76627876     0.83900
O237        O  0.25904242  0.17145552  0.76150712    -0.66800
Ni238      Ni  0.17293233  0.25193739  0.66649381     1.27400
Ni239      Ni  0.26295882  0.27951394  0.68621978     1.26100
H240        H  0.26848964  0.25813741  0.75715549     0.38400
O241        O  0.82135940  0.31273098  0.76106250    -0.81600
O242        O  0.68693570  0.25766566  0.64597048    -0.66200
O243        O  0.74937541  0.27487755  0.74366195    -1.12800
C244        C  0.81993583  0.16033659  0.69765576     1.05300
O245        O  0.68264694  0.19239960  0.65669102    -0.79500
O246        O  0.71880012  0.16344279  0.72938221    -0.67000
Ni247      Ni  0.76591400  0.32765275  0.75791146     1.34900
C248        C  0.73813122  0.16822850  0.76356335     0.84100
O249        O  0.68138274  0.31087113  0.70847309    -0.80000
O250        O  0.71179041  0.34639127  0.75833769    -0.90300
C251        C  0.67155787  0.22429140  0.63779548     0.83600
O252        O  0.77209788  0.35009723  0.70231849    -0.68500
O253        O  0.78630946  0.14891384  0.68431836    -0.87800
C254        C  0.76272623  0.33829935  0.66533470     0.84500
C255        C  0.68154634  0.33931658  0.73546579     1.06000
H256        H  0.76914525  0.23306343  0.65707319     0.37800
O257        O  0.75471396  0.22611078  0.68186600    -1.10400
O258        O  0.76467251  0.19484629  0.76674848    -0.67100
Ni259      Ni  0.78782762  0.23475857  0.72955684     1.26300
O260        O  0.74616487  0.30490633  0.65858635    -0.67300
O261        O  0.82569778  0.19513888  0.71273475    -0.79600
C262        C  0.83621547  0.28222054  0.77962734     0.83900
O263        O  0.82101965  0.24805852  0.77588048    -0.66800
Ni264      Ni  0.73517814  0.17355164  0.67264828     1.27400
Ni265      Ni  0.71793406  0.26835850  0.69440429     1.26100
H266        H  0.73450030  0.26547409  0.76718450     0.38400
O267        O  0.67873288  0.81548616  0.66277466    -0.81600
O268        O  0.81797216  0.74686223  0.76605534    -0.66200
O269        O  0.75040986  0.77369768  0.67473199    -1.12800
C270        C  0.67665651  0.66371016  0.71960716     1.05300
O271        O  0.81646788  0.68153358  0.75447380    -0.79500
O272        O  0.77233501  0.65549445  0.68588672    -0.67000
Ni273      Ni  0.73394954  0.82767740  0.66524984     1.34900
C274        C  0.75701323  0.66720020  0.65128003     0.84100
O275        O  0.82235181  0.80072327  0.70507545    -0.80000
O276        O  0.78749625  0.84402500  0.66502063    -0.90300
C277        C  0.83036406  0.71184235  0.77372707     0.83600
O278        O  0.72969198  0.84585285  0.72265010    -0.68500
O279        O  0.70873208  0.65035487  0.73555290    -0.87800
C280        C  0.74377623  0.83275558  0.75725356     0.84500
C281        C  0.81909956  0.83257499  0.68344893     1.06000
H282        H  0.73276952  0.73226271  0.76005731     0.37800
O283        O  0.74570481  0.72357273  0.73462318    -1.10400
O284        O  0.73442976  0.69781952  0.64933219    -0.67100
Ni285      Ni  0.71151194  0.73599865  0.68848673     1.26300
O286        O  0.76231137  0.79962563  0.75991853    -0.67300
O287        O  0.67289532  0.69806611  0.70323698    -0.79600
C288        C  0.66448899  0.78735730  0.64052356     0.83900
O289        O  0.67825043  0.75214848  0.64313487    -0.66800
Ni290      Ni  0.76165226  0.66906661  0.74337501     1.27400
Ni291      Ni  0.78464251  0.76175454  0.72052761     1.26100
H292        H  0.76335809  0.76492491  0.64935070     0.38400
O293        O  0.45153687  0.46771685  0.75070669    -0.75100
O294        O  0.52993618  0.54789681  0.74687747    -0.75100
O295        O  0.45030518  0.54756328  0.73977111    -0.75200
O296        O  0.53129750  0.46782664  0.75781377    -0.75200
O297        O  0.53660297  0.45943126  0.68844219    -0.75200
O298        O  0.45406901  0.53758394  0.67054134    -0.75100
O299        O  0.53380551  0.53974689  0.67736914    -0.75100
O300        O  0.45733808  0.45731615  0.68176898    -0.75200
Ni301      Ni  0.49057136  0.50806686  0.75122022     1.25400
Ni302      Ni  0.49557368  0.49824652  0.67704157     1.25400
C303        C  0.44164390  0.44906838  0.71699609     0.87100
C304        C  0.54517774  0.55672858  0.71159571     0.87000
C305        C  0.43867247  0.55562319  0.70220335     0.87000
C306        C  0.54762889  0.45080132  0.72608469     0.87200
O307        O  0.46714703  0.53701759  0.13933235    -0.75100
O308        O  0.55310259  0.46389683  0.14427194    -0.75100
O309        O  0.47396957  0.45751343  0.14397921    -0.75200
O310        O  0.54633246  0.54397988  0.13998234    -0.75200
O311        O  0.54811743  0.54676737  0.21011106    -0.75200
O312        O  0.47283833  0.46298596  0.21394832    -0.75100
O313        O  0.55225389  0.46633626  0.21444771    -0.75100
O314        O  0.46876912  0.54315510  0.20926569    -0.75200
Ni315      Ni  0.51015471  0.50050840  0.13940561     1.25400
Ni316      Ni  0.51048516  0.50497980  0.21449282     1.25400
C317        C  0.45370445  0.55198341  0.17338388     0.87100
C318        C  0.56676518  0.45294741  0.18006813     0.87000
C319        C  0.46091885  0.44654482  0.17964552     0.87000
C320        C  0.56005736  0.55880743  0.17437478     0.87200
O321        O  0.74287788  0.45486565  0.50098130    -0.75100
O322        O  0.74238234  0.53330705  0.41240467    -0.75100
O323        O  0.74506855  0.45199336  0.41466124    -0.75200
O324        O  0.74066322  0.53579003  0.49855184    -0.75200
O325        O  0.80559976  0.53827035  0.49958221    -0.75200
O326        O  0.81032583  0.45275463  0.41813413    -0.75100
O327        O  0.80761307  0.53401855  0.41407726    -0.75100
O328        O  0.80798916  0.45673424  0.50477121    -0.75200
Ni329      Ni  0.74048608  0.49389366  0.45652401     1.25400
Ni330      Ni  0.81017223  0.49534900  0.45925612     1.25400
C331        C  0.77529310  0.44369125  0.51853898     0.87100
C332        C  0.77480875  0.54647811  0.39830772     0.87000
C333        C  0.77855674  0.43897742  0.40209651     0.87000
C334        C  0.77241444  0.55117157  0.51291792     0.87200
O335        O  0.53869363  0.76174451  0.49558871    -0.75100
O336        O  0.46557645  0.75019970  0.40468780    -0.75100
O337        O  0.54453916  0.75442313  0.41146907    -0.75200
O338        O  0.46045440  0.75817725  0.48831522    -0.75200
O339        O  0.45513248  0.82419810  0.48060890    -0.75200
O340        O  0.54142543  0.82083126  0.40647749    -0.75100
O341        O  0.46228339  0.81623492  0.39698197    -0.75100
O342        O  0.53383974  0.82799225  0.49095631    -0.75200
Ni343      Ni  0.50251480  0.75380572  0.45018880     1.25400
Ni344      Ni  0.49814883  0.82476388  0.44348132     1.25400
C345        C  0.54777572  0.79654517  0.50887304     0.87100
C346        C  0.45145897  0.78108005  0.38614079     0.87000
C347        C  0.55703397  0.78716825  0.39673682     0.87000
C348        C  0.44349305  0.79159863  0.49628000     0.87200
O349        O  0.23437645  0.45929000  0.40967948    -0.75100
O350        O  0.22115529  0.53733990  0.49552626    -0.75100
O351        O  0.22743109  0.45749343  0.49380020    -0.75200
O352        O  0.22872797  0.53895346  0.41225730    -0.75200
O353        O  0.16350073  0.53655109  0.40556561    -0.75200
O354        O  0.16253754  0.45244798  0.48603420    -0.75100
O355        O  0.15602212  0.53307555  0.48943865    -0.75100
O356        O  0.16936596  0.45659981  0.40139609    -0.75200
Ni357      Ni  0.23020810  0.49830901  0.45317585     1.25400
Ni358      Ni  0.16041844  0.49440466  0.44542810     1.25400
C359        C  0.20399859  0.44579618  0.39077770     0.87100
C360        C  0.18659979  0.54872443  0.50577487     0.87000
C361        C  0.19508752  0.44128826  0.50309350     0.87000
C362        C  0.19650595  0.55137291  0.39585423     0.87200
O363        O  0.53414095  0.18606327  0.49758813    -0.75100
O364        O  0.45581554  0.18472647  0.40976547    -0.75100
O365        O  0.53535786  0.18407204  0.41184189    -0.75200
O366        O  0.45411853  0.18773766  0.49597778    -0.75200
O367        O  0.45453854  0.25416508  0.49370208    -0.75200
O368        O  0.53497138  0.25052201  0.41064569    -0.75100
O369        O  0.45574037  0.25123704  0.40802972    -0.75100
O370        O  0.53406543  0.25252121  0.49592620    -0.75200
Ni371      Ni  0.49475948  0.18323630  0.45390012     1.25400
Ni372      Ni  0.49473359  0.25439438  0.45207133     1.25400
C373        C  0.54734776  0.21948984  0.51090889     0.87100
C374        C  0.44361427  0.21767206  0.39378412     0.87000
C375        C  0.54828102  0.21693420  0.39719491     0.87000
C376        C  0.44155375  0.22188258  0.50923374     0.87200
C377        C  0.63731683  0.82068102  0.57613869    -0.02500
C378        C  0.63175784  0.79533245  0.61072903     0.07200
C379        C  0.59664856  0.77407105  0.61389932    -0.02600
C380        C  0.56804198  0.77658801  0.58171195    -0.02600
C381        C  0.57483702  0.79960343  0.54551538     0.07300
C382        C  0.60918572  0.82239959  0.54328039    -0.02800
Br383      Br  0.61988174  0.85278490  0.49346039    -0.01400
Br384      Br  0.68505481  0.85053438  0.57196894    -0.01400
Br385      Br  0.51931682  0.74856161  0.58762382    -0.01400
Br386      Br  0.58772703  0.74137558  0.66244653    -0.01400
C387        C  0.79775585  0.61740158  0.60874878    -0.02500
C388        C  0.76381926  0.64221952  0.61210768     0.07200
C389        C  0.73457189  0.63933102  0.57984192    -0.02600
C390        C  0.73869615  0.61142009  0.54643161    -0.02600
C391        C  0.77066251  0.58391477  0.54568362     0.07300
C392        C  0.80051536  0.58771517  0.57693600    -0.02800
Br393      Br  0.84476520  0.55087187  0.57893933    -0.01400
Br394      Br  0.84198399  0.62434843  0.64677844    -0.01400
Br395      Br  0.70057422  0.61255613  0.50069904    -0.01400
Br396      Br  0.68658858  0.67100597  0.58143501    -0.01400
C397        C  0.60691304  0.64761259  0.73679225    -0.02500
C398        C  0.64264401  0.63683731  0.71766966     0.07200
C399        C  0.64552298  0.60075167  0.69462381    -0.02600
C400        C  0.61322000  0.57529669  0.69125722    -0.02600
C401        C  0.57758635  0.58567973  0.71100665     0.07300
C402        C  0.57431920  0.62238412  0.73299153    -0.02800
Br403      Br  0.52459472  0.63921247  0.75607099    -0.01400
Br404      Br  0.60334450  0.69571431  0.77037878    -0.01400
Br405      Br  0.61896549  0.52535922  0.66085850    -0.01400
Br406      Br  0.69371415  0.58594869  0.66694083    -0.01400
C407        C  0.74709868  0.40234211  0.62621027    -0.02500
C408        C  0.76872500  0.36601925  0.62870245     0.07200
C409        C  0.79429916  0.35618481  0.59536742    -0.02600
C410        C  0.79680778  0.38122242  0.55946976    -0.02600
C411        C  0.77420957  0.41698489  0.55660089     0.07300
C412        C  0.74991620  0.42755721  0.59083334    -0.02800
Br413      Br  0.72138134  0.47789829  0.59047757    -0.01400
Br414      Br  0.71238224  0.41770686  0.67096530    -0.01400
Br415      Br  0.82984024  0.36536755  0.51333152    -0.01400
Br416      Br  0.82739352  0.30932341  0.60010814    -0.01400
C417        C  0.64366356  0.24268046  0.56679931    -0.02500
C418        C  0.63941051  0.22291660  0.60567483     0.07200
C419        C  0.60453092  0.20207798  0.61331223    -0.02600
C420        C  0.57485126  0.19996000  0.58200183    -0.02600
C421        C  0.57899395  0.22013198  0.54345994     0.07300
C422        C  0.61359292  0.24137335  0.53602282    -0.02800
Br423      Br  0.62113536  0.26683219  0.48237410    -0.01400
Br424      Br  0.69137508  0.27053421  0.55430252    -0.01400
Br425      Br  0.52799498  0.17026965  0.59273129    -0.01400
Br426      Br  0.59572545  0.17908577  0.66787085    -0.01400
C427        C  0.60854551  0.35424996  0.72149751    -0.02500
C428        C  0.64540230  0.36633039  0.73878375     0.07200
C429        C  0.64744557  0.40557189  0.75665997    -0.02600
C430        C  0.61516393  0.43254002  0.75331106    -0.02600
C431        C  0.58020698  0.42116969  0.73278439     0.07300
C432        C  0.57668017  0.38167113  0.71805635    -0.02800
Br433      Br  0.52705702  0.36476398  0.69441932    -0.01400
Br434      Br  0.59927568  0.29956402  0.70448731    -0.01400
Br435      Br  0.61945723  0.48639573  0.77508528    -0.01400
Br436      Br  0.69390335  0.42469717  0.78558451    -0.01400
C437        C  0.39819152  0.25025185  0.61521475    -0.02500
C438        C  0.36005936  0.23435520  0.61238328     0.07200
C439        C  0.34863572  0.21395364  0.57533775    -0.02600
C440        C  0.37544267  0.20856180  0.54193237    -0.02600
C441        C  0.41337284  0.22494745  0.54468868     0.07300
C442        C  0.42436085  0.24610539  0.58147232    -0.02800
Br443      Br  0.47607288  0.26871666  0.58657266    -0.01400
Br444      Br  0.41497073  0.27876812  0.66517171    -0.01400
Br445      Br  0.35985892  0.17936263  0.49220284    -0.01400
Br446      Br  0.29660555  0.19261504  0.57098796    -0.01400
C447        C  0.17828287  0.38276246  0.60202804    -0.02500
C448        C  0.20605204  0.35146911  0.59692902     0.07200
C449        C  0.22758767  0.34809153  0.55944367    -0.02600
C450        C  0.22293112  0.37699151  0.52815878    -0.02600
C451        C  0.19623536  0.40902133  0.53387113     0.07300
C452        C  0.17332404  0.41153063  0.57039599    -0.02800
Br453      Br  0.13695496  0.45563159  0.57842067    -0.01400
Br454      Br  0.14837764  0.38771160  0.65300524    -0.01400
Br455      Br  0.25250790  0.37180251  0.47678165    -0.01400
Br456      Br  0.26197335  0.30262475  0.54945798    -0.01400
C457        C  0.41269659  0.38998500  0.75252265    -0.02500
C458        C  0.41188263  0.41735480  0.71894688     0.07200
C459        C  0.38268833  0.41405101  0.68722169    -0.02600
C460        C  0.35609667  0.38230709  0.68768039    -0.02600
C461        C  0.35652866  0.35508938  0.72165846     0.07300
C462        C  0.38422289  0.36019514  0.75481054    -0.02800
Br463      Br  0.38321088  0.32725176  0.80455715    -0.01400
Br464      Br  0.45476476  0.39059175  0.79399016    -0.01400
Br465      Br  0.32173126  0.37518106  0.63935802    -0.01400
Br466      Br  0.37798381  0.45361328  0.64332768    -0.01400
C467        C  0.87940951  0.92608636  0.69093212    -0.02500
C468        C  0.91706360  0.91122322  0.68152481     0.07200
C469        C  0.92284319  0.87058125  0.67176629    -0.02600
C470        C  0.89082744  0.84454024  0.67181278    -0.02600
C471        C  0.85296166  0.85936448  0.68150015     0.07300
C472        C  0.84743694  0.90034969  0.69112928    -0.02800
Br473      Br  0.79680978  0.92153186  0.70796354    -0.01400
Br474      Br  0.87157059  0.98191085  0.70419476    -0.01400
Br475      Br  0.89903344  0.78890672  0.65797775    -0.01400
Br476      Br  0.97491917  0.85062125  0.65984674    -0.01400
C477        C  0.89454235  0.08270295  0.65780604    -0.02500
C478        C  0.91791107  0.07477932  0.69451579     0.07200
C479        C  0.90740001  0.09508336  0.73256787    -0.02600
C480        C  0.87562825  0.12282317  0.73328107    -0.02600
C481        C  0.85371671  0.13132042  0.69640143     0.07300
C482        C  0.86332605  0.11104839  0.65881266    -0.02800
Br483      Br  0.83392186  0.12288893  0.60783262    -0.01400
Br484      Br  0.90175989  0.05309827  0.60582724    -0.01400
Br485      Br  0.86018918  0.14738524  0.78605395    -0.01400
Br486      Br  0.93486700  0.08559164  0.78531075    -0.01400
C487        C  0.08039579  0.10749112  0.72067135    -0.02500
C488        C  0.08877458  0.07094387  0.70040696     0.07200
C489        C  0.12479324  0.06523590  0.67979934    -0.02600
C490        C  0.15148246  0.09674817  0.67745839    -0.02600
C491        C  0.14334681  0.13337751  0.69808139     0.07300
C492        C  0.10790200  0.13825531  0.72047933    -0.02800
Br493      Br  0.09623465  0.18695038  0.75128211    -0.01400
Br494      Br  0.02979301  0.11681834  0.74574352    -0.01400
Br495      Br  0.19665659  0.09086341  0.64186387    -0.01400
Br496      Br  0.13764892  0.01395714  0.65503170    -0.01400
C497        C  0.17204727  0.65333654  0.54462732    -0.02500
C498        C  0.19751302  0.65250578  0.57980739     0.07200
C499        C  0.21205466  0.61570435  0.59540786    -0.02600
C500        C  0.20509541  0.58051884  0.57290281    -0.02600
C501        C  0.18301787  0.58195545  0.53537520     0.07300
C502        C  0.16441659  0.61780640  0.52252798    -0.02800
Br503      Br  0.13146130  0.61924107  0.47265954    -0.01400
Br504      Br  0.15051732  0.70333418  0.52444689    -0.01400
Br505      Br  0.22658470  0.53021663  0.59279644    -0.01400
Br506      Br  0.24115358  0.61268488  0.64784693    -0.01400
C507        C  0.35214555  0.75725711  0.54708839    -0.02500
C508        C  0.35168434  0.78190945  0.58357546     0.07200
C509        C  0.37712680  0.81475070  0.58673920    -0.02600
C510        C  0.40735526  0.81852558  0.55782085    -0.02600
C511        C  0.40959201  0.79189063  0.52351003     0.07300
C512        C  0.38037090  0.76340841  0.51644443    -0.02800
Br513      Br  0.37918180  0.73244506  0.46467462    -0.01400
Br514      Br  0.31733259  0.71259816  0.53910727    -0.01400
Br515      Br  0.44754859  0.85761712  0.56799358    -0.01400
Br516      Br  0.37061070  0.85530025  0.62995503    -0.01400
C517        C  0.38821151  0.65187477  0.66623305    -0.02500
C518        C  0.35377105  0.65248029  0.69049003     0.07200
C519        C  0.34572367  0.61956870  0.71611579    -0.02600
C520        C  0.37257140  0.58698684  0.71857103    -0.02600
C521        C  0.40785359  0.58716411  0.69553825     0.07300
C522        C  0.41473279  0.61920571  0.66813691    -0.02800
Br523      Br  0.46162672  0.61987311  0.63462817    -0.01400
Br524      Br  0.40031889  0.69690826  0.63159527    -0.01400
Br525      Br  0.36025122  0.54141993  0.75239298    -0.01400
Br526      Br  0.29891436  0.62024183  0.74947209    -0.01400
C527        C  0.13505770  0.85516949  0.72601699    -0.02500
C528        C  0.14320160  0.83362829  0.68860468     0.07200
C529        C  0.12533962  0.84643535  0.65066776    -0.02600
C530        C  0.09713915  0.87796076  0.65043040    -0.02600
C531        C  0.08794809  0.89932994  0.68819258     0.07300
C532        C  0.10862022  0.88814881  0.72574607    -0.02800
Br533      Br  0.10261376  0.91758531  0.77809562    -0.01400
Br534      Br  0.15813297  0.83824364  0.77913790    -0.01400
Br535      Br  0.07041549  0.88895491  0.59760200    -0.01400
Br536      Br  0.14113122  0.82171379  0.59819690    -0.01400
C537        C  0.12178391  0.69294877  0.86884492    -0.02500
C538        C  0.08464134  0.71175256  0.86573629     0.07200
C539        C  0.07276694  0.73147655  0.82869326    -0.02600
C540        C  0.09823325  0.73273840  0.79473355    -0.02600
C541        C  0.13540737  0.71392973  0.79775679     0.07300
C542        C  0.14706727  0.69359600  0.83445373    -0.02800
Br543      Br  0.19669011  0.66514789  0.83666670    -0.01400
Br544      Br  0.13885967  0.66825491  0.92074586    -0.01400
Br545      Br  0.08206079  0.76133787  0.74465301    -0.01400
Br546      Br  0.02113591  0.75589566  0.82365310    -0.01400
C547        C  0.92611910  0.68316781  0.83059495    -0.02500
C548        C  0.92108448  0.70322326  0.86953536     0.07200
C549        C  0.88568158  0.72418955  0.87721877    -0.02600
C550        C  0.85571153  0.72523824  0.84641733    -0.02600
C551        C  0.86134608  0.70693489  0.80669003     0.07300
C552        C  0.89660102  0.68559674  0.79898247    -0.02800
Br553      Br  0.90565328  0.66187408  0.74438467    -0.01400
Br554      Br  0.97423850  0.65409545  0.81954021    -0.01400
Br555      Br  0.80578265  0.74999015  0.85996434    -0.01400
Br556      Br  0.87738528  0.75071791  0.93070722    -0.01400
C557        C  0.70234752  0.90381666  0.84143681    -0.02500
C558        C  0.73638776  0.91293383  0.86618418     0.07200
C559        C  0.77213960  0.89263154  0.85588791    -0.02600
C560        C  0.77423746  0.86667616  0.82061688    -0.02600
C561        C  0.74047483  0.85835523  0.79600310     0.07300
C562        C  0.70452306  0.87652247  0.80716176    -0.02800
Br563      Br  0.65759973  0.86305816  0.77566090    -0.01400
Br564      Br  0.65187764  0.92877011  0.85203814    -0.01400
Br565      Br  0.82489324  0.84514192  0.80420131    -0.01400
Br566      Br  0.81938028  0.89817125  0.88985417    -0.01400
C567        C  0.72435518  0.09836541  0.79247639    -0.02500
C568        C  0.73149937  0.13969831  0.80006621     0.07200
C569        C  0.73567614  0.15216846  0.84274299    -0.02600
C570        C  0.73520096  0.12409698  0.87624089    -0.02600
C571        C  0.72982390  0.08298721  0.86824440     0.07300
C572        C  0.72411396  0.07056994  0.82609602    -0.02800
Br573      Br  0.71828130  0.01439275  0.81418978    -0.01400
Br574      Br  0.71603331  0.07797742  0.73600205    -0.01400
Br575      Br  0.74214952  0.14188461  0.93360725    -0.01400
Br576      Br  0.73940469  0.20821985  0.85609914    -0.01400
C577        C  0.90246428  0.30785063  0.87242680    -0.02500
C578        C  0.93615566  0.28417611  0.86385043     0.07200
C579        C  0.93836443  0.26317558  0.82516870    -0.02600
C580        C  0.90645855  0.26428837  0.79645297    -0.02600
C581        C  0.87201348  0.28612395  0.80623184     0.07300
C582        C  0.87057219  0.30874441  0.84374764    -0.02800
Br583      Br  0.82363809  0.33891593  0.85724469    -0.01400
Br584      Br  0.89820070  0.33681225  0.92493028    -0.01400
Br585      Br  0.91044010  0.23702754  0.74293239    -0.01400
Br586      Br  0.98552109  0.23373770  0.81072675    -0.01400
C587        C  0.13792031  0.24776465  0.86755142    -0.02500
C588        C  0.10412565  0.27229656  0.86416362     0.07200
C589        C  0.09885973  0.29629127  0.82831833    -0.02600
C590        C  0.12599661  0.29437962  0.79511913    -0.02600
C591        C  0.15772894  0.26608531  0.79585012     0.07300
C592        C  0.16480437  0.24488344  0.83406695    -0.02800
Br593      Br  0.21197835  0.21311945  0.84328666    -0.01400
Br594      Br  0.14771501  0.21830129  0.91883661    -0.01400
Br595      Br  0.11889674  0.33269130  0.75032177    -0.01400
Br596      Br  0.05225403  0.32963654  0.82283930    -0.01400
C597        C  0.29403961  0.05685018  0.81232813    -0.02500
C598        C  0.31096672  0.06460062  0.85203778     0.07200
C599        C  0.32537053  0.10262268  0.86225558    -0.02600
C600        C  0.32086144  0.13366835  0.83330802    -0.02600
C601        C  0.30241778  0.12635276  0.79422011     0.07300
C602        C  0.28978947  0.08785861  0.78327785    -0.02800
Br603      Br  0.26668608  0.07771024  0.72873133    -0.01400
Br604      Br  0.27684671  0.00375505  0.79801536    -0.01400
Br605      Br  0.33708569  0.18690262  0.84842962    -0.01400
Br606      Br  0.34870348  0.11296128  0.91689892    -0.01400
C607        C  0.27402849  0.86092446  0.87914943    -0.02500
C608        C  0.30304622  0.88923184  0.86998554     0.07200
C609        C  0.32976086  0.88171537  0.83726363    -0.02600
C610        C  0.32638838  0.84696223  0.81262945    -0.02600
C611        C  0.29507878  0.82075921  0.81939684     0.07300
C612        C  0.26996938  0.82691745  0.85366655    -0.02800
Br613      Br  0.23033582  0.78815729  0.86613798    -0.01400
Br614      Br  0.23968313  0.86772528  0.92679614    -0.01400
Br615      Br  0.36340767  0.83725982  0.76795546    -0.01400
Br616      Br  0.36841721  0.92076820  0.82284375    -0.01400
C617        C  0.40247520  0.74114636  0.28697430    -0.02500
C618        C  0.36561477  0.76093717  0.28769927     0.07200
C619        C  0.35717613  0.78813130  0.32045460    -0.02600
C620        C  0.38533998  0.79528335  0.35254315    -0.02600
C621        C  0.42224192  0.77540325  0.35174008     0.07300
C622        C  0.43055861  0.74819401  0.31883740    -0.02800
Br623      Br  0.48120482  0.72150350  0.31613169    -0.01400
Br624      Br  0.41491008  0.70405330  0.24211813    -0.01400
Br625      Br  0.37247965  0.83098328  0.39843530    -0.01400
Br626      Br  0.30764280  0.81661774  0.32021047    -0.01400
C627        C  0.18495860  0.57568631  0.32336540    -0.02500
C628        C  0.19823719  0.58293763  0.36479596     0.07200
C629        C  0.21713897  0.61876788  0.37542614    -0.02600
C630        C  0.22346897  0.64710803  0.34428770    -0.02600
C631        C  0.21212326  0.63888555  0.30236735     0.07300
C632        C  0.19256600  0.60342488  0.29190019    -0.02800
Br633      Br  0.17895367  0.59124083  0.23411670    -0.01400
Br634      Br  0.15864062  0.52671385  0.30899602    -0.01400
Br635      Br  0.24637649  0.69776009  0.35952870    -0.01400
Br636      Br  0.23411413  0.62937728  0.43267899    -0.01400
C637        C  0.38777346  0.63736772  0.13973041    -0.02500
C638        C  0.35981573  0.63778802  0.17246654     0.07200
C639        C  0.35941159  0.60543318  0.20113589    -0.02600
C640        C  0.38887725  0.57579418  0.19920722    -0.02600
C641        C  0.42020295  0.57977260  0.17118910     0.07300
C642        C  0.41920052  0.61008747  0.14082175    -0.02800
Br643      Br  0.46230380  0.61689489  0.10255825    -0.01400
Br644      Br  0.38310321  0.67249439  0.09162457    -0.01400
Br645      Br  0.38552279  0.52886781  0.23408569    -0.01400
Br646      Br  0.32031008  0.60060657  0.24447852    -0.01400
C647        C  0.31539963  0.84615960  0.06912962    -0.02500
C648        C  0.29322341  0.85742529  0.10437435     0.07200
C649        C  0.27586869  0.89549002  0.10778355    -0.02600
C650        C  0.28067938  0.92278655  0.07544176    -0.02600
C651        C  0.30190352  0.91121080  0.03955562     0.07300
C652        C  0.31969716  0.87318575  0.03640064    -0.02800
Br653      Br  0.34740495  0.85700300  0.98622762    -0.01400
Br654      Br  0.33713414  0.79271240  0.06427905    -0.01400
Br655      Br  0.25890677  0.97612502  0.08080509    -0.01400
Br656      Br  0.24526986  0.90992103  0.15642463    -0.01400
C657        C  0.12271841  0.74221336  0.04237405    -0.02500
C658        C  0.09282924  0.71397833  0.04632769     0.07200
C659        C  0.09171886  0.69032295  0.08271707    -0.02600
C660        C  0.11971149  0.69544392  0.11531464    -0.02600
C661        C  0.14736371  0.72676177  0.11369230     0.07300
C662        C  0.14910162  0.74951203  0.07605212    -0.02800
Br663      Br  0.18546430  0.79267734  0.06945358    -0.01400
Br664      Br  0.12805867  0.77065319  0.98995563    -0.01400
Br665      Br  0.12011213  0.65760166  0.16095098    -0.01400
Br666      Br  0.04974408  0.65290463  0.08986304    -0.01400
C667        C  0.75285367  0.59427396  0.29108067    -0.02500
C668        C  0.77269372  0.63109760  0.29399624     0.07200
C669        C  0.79270539  0.64024149  0.33209100    -0.02600
C670        C  0.79352503  0.61280804  0.36603407    -0.02600
C671        C  0.77417767  0.57581210  0.36264250     0.07300
C672        C  0.75359704  0.56701947  0.32490954    -0.02800
Br673      Br  0.72655311  0.51697423  0.31890245    -0.01400
Br674      Br  0.72193016  0.58157490  0.24174566    -0.01400
Br675      Br  0.81917404  0.62711036  0.41833378    -0.01400
Br676      Br  0.81973340  0.69014563  0.33765720    -0.01400
C677        C  0.61747392  0.80138489  0.29997681    -0.02500
C678        C  0.65323154  0.78348048  0.31281780     0.07200
C679        C  0.65769337  0.76758720  0.35359969    -0.02600
C680        C  0.62594077  0.76854258  0.38113022    -0.02600
C681        C  0.59010582  0.78615410  0.36810586     0.07300
C682        C  0.58595805  0.80301342  0.32780688    -0.02800
Br683      Br  0.53654608  0.82663060  0.30983466    -0.01400
Br684      Br  0.61076142  0.82169441  0.24354988    -0.01400
Br685      Br  0.63213951  0.74715751  0.43722968    -0.01400
Br686      Br  0.70782258  0.74632016  0.37265824    -0.01400
C687        C  0.62030685  0.65198127  0.19595618    -0.02500
C688        C  0.65678901  0.64152650  0.17692436     0.07200
C689        C  0.65899125  0.60484468  0.15356714    -0.02600
C690        C  0.62664187  0.57913075  0.15143087    -0.02600
C691        C  0.59186523  0.58858287  0.17293271     0.07300
C692        C  0.58859584  0.62524889  0.19461601    -0.02800
Br693      Br  0.53970850  0.63935947  0.22155278    -0.01400
Br694      Br  0.61148647  0.70333321  0.22283526    -0.01400
Br695      Br  0.63106784  0.52896156  0.12091779    -0.01400
Br696      Br  0.70613628  0.58641915  0.12525691    -0.01400
C697        C  0.93870860  0.72744487  0.08747275    -0.02500
C698        C  0.93108488  0.70338173  0.05174700     0.07200
C699        C  0.89810451  0.67855293  0.05044594    -0.02600
C700        C  0.87164023  0.67939024  0.08395027    -0.02600
C701        C  0.87870155  0.70436654  0.11906095     0.07300
C702        C  0.91283129  0.72739911  0.12134782    -0.02800
Br703      Br  0.92423929  0.75882889  0.17116339    -0.01400
Br704      Br  0.98461806  0.76057932  0.09054043    -0.01400
Br705      Br  0.82387978  0.64929117  0.07966553    -0.01400
Br706      Br  0.88713908  0.64603856  0.00130648    -0.01400
C707        C  0.72279282  0.89199098  0.12425609    -0.02500
C708        C  0.74492347  0.85548830  0.12050864     0.07200
C709        C  0.76289420  0.84754314  0.08088125    -0.02600
C710        C  0.76065735  0.87579874  0.04764248    -0.02600
C711        C  0.73904316  0.91189148  0.05188830     0.07300
C712        C  0.71954069  0.91920270  0.09020372    -0.02800
Br713      Br  0.69014884  0.96859300  0.09728493    -0.01400
Br714      Br  0.69822016  0.90803047  0.17650634    -0.01400
Br715      Br  0.78670839  0.86441869  0.99526495    -0.01400
Br716      Br  0.79002650  0.79745939  0.07002575    -0.01400
C717        C  0.64450410  0.19738775  0.33987347    -0.02500
C718        C  0.63847687  0.21926643  0.30249677     0.07200
C719        C  0.60306724  0.24090932  0.29663931    -0.02600
C720        C  0.57344072  0.23965048  0.32721653    -0.02600
C721        C  0.57890659  0.21665728  0.36411226     0.07300
C722        C  0.61471682  0.19561208  0.37026599    -0.02800
Br723      Br  0.62452204  0.16697240  0.42192005    -0.01400
Br724      Br  0.69533637  0.17349329  0.35156929    -0.01400
Br725      Br  0.52516942  0.26941774  0.31783670    -0.01400
Br726      Br  0.59525771  0.27279041  0.24675591    -0.01400
C727        C  0.76400244  0.34287476  0.33834368    -0.02500
C728        C  0.78106455  0.35246170  0.29908347     0.07200
C729        C  0.80150473  0.38913037  0.29643329    -0.02600
C730        C  0.80079173  0.41690600  0.33021673    -0.02600
C731        C  0.78070977  0.40851192  0.36758367     0.07300
C732        C  0.76304828  0.37106715  0.37177410    -0.02800
Br733      Br  0.73812562  0.35808071  0.42408122    -0.01400
Br734      Br  0.74444227  0.29003636  0.34857996    -0.01400
Br735      Br  0.82516269  0.46821628  0.32394811    -0.01400
Br736      Br  0.83059140  0.40329887  0.24695049    -0.01400
C737        C  0.59866694  0.38908694  0.15752465    -0.02500
C738        C  0.60006950  0.42469483  0.18142073     0.07200
C739        C  0.63387620  0.43380090  0.20544901    -0.02600
C740        C  0.66602146  0.40710636  0.20593066    -0.02600
C741        C  0.66422800  0.37108076  0.18280514     0.07300
C742        C  0.63073682  0.36237521  0.15819466    -0.02800
Br743      Br  0.62920577  0.31428176  0.12428439    -0.01400
Br744      Br  0.55210489  0.37557316  0.12546359    -0.01400
Br745      Br  0.71177512  0.41949915  0.23966225    -0.01400
Br746      Br  0.63689880  0.48331223  0.23691995    -0.01400
C747        C  0.70796045  0.11033257  0.06148292    -0.02500
C748        C  0.73369564  0.07682689  0.05806208     0.07200
C749        C  0.76113949  0.06974856  0.09108673    -0.02600
C750        C  0.76463966  0.09693975  0.12505317    -0.02600
C751        C  0.73952773  0.13071358  0.12819355     0.07300
C752        C  0.71114184  0.13719040  0.09615572    -0.02800
Br753      Br  0.67690912  0.18335041  0.09976516    -0.01400
Br754      Br  0.66876390  0.12044374  0.01846751    -0.01400
Br755      Br  0.80636909  0.08909985  0.16556748    -0.01400
Br756      Br  0.79272703  0.02123993  0.09186815    -0.01400
C757        C  0.92172597  0.23410797  0.05996364    -0.02500
C758        C  0.93476759  0.27082016  0.04284148     0.07200
C759        C  0.91676330  0.30677624  0.05795114    -0.02600
C760        C  0.88705620  0.30605251  0.08879674    -0.02600
C761        C  0.87392021  0.26940250  0.10554331     0.07300
C762        C  0.89194476  0.23346997  0.09073205    -0.02800
Br763      Br  0.87752728  0.18189181  0.11286696    -0.01400
Br764      Br  0.94399078  0.18289270  0.04283131    -0.01400
Br765      Br  0.86384561  0.35679328  0.10606819    -0.01400
Br766      Br  0.93064288  0.35861693  0.03629916    -0.01400
C767        C  0.24134886  0.39819763  0.29090479    -0.02500
C768        C  0.22224364  0.36137572  0.29186419     0.07200
C769        C  0.19558136  0.35297208  0.32405603    -0.02600
C770        C  0.18898601  0.38103935  0.35617479    -0.02600
C771        C  0.20913049  0.41740740  0.35604947     0.07300
C772        C  0.23478836  0.42631018  0.32301382    -0.02800
Br773      Br  0.25996164  0.47748815  0.32054588    -0.01400
Br774      Br  0.27536192  0.41066188  0.24477544    -0.01400
Br775      Br  0.15428134  0.36825930  0.40165374    -0.01400
Br776      Br  0.16992125  0.30195981  0.32597609    -0.01400
C777        C  0.42755191  0.19956782  0.31898492    -0.02500
C778        C  0.41599936  0.21703187  0.35745620     0.07200
C779        C  0.37868333  0.23509483  0.36060546    -0.02600
C780        C  0.35294383  0.23578397  0.32557059    -0.02600
C781        C  0.36582351  0.22227321  0.28549082     0.07300
C782        C  0.40345746  0.20347018  0.28273861    -0.02800
Br783      Br  0.42486411  0.18561772  0.22954484    -0.01400
Br784      Br  0.47771567  0.17211522  0.31530132    -0.01400
Br785      Br  0.29940891  0.25344575  0.33423430    -0.01400
Br786      Br  0.36274106  0.25911437  0.41323979    -0.01400
C787        C  0.43833602  0.38121577  0.20754909    -0.02500
C788        C  0.43161230  0.41441467  0.18131020     0.07200
C789        C  0.39669359  0.41688616  0.15697549    -0.02600
C790        C  0.36923566  0.38585082  0.15804386    -0.02600
C791        C  0.37639250  0.35219490  0.18364478     0.07300
C792        C  0.41065216  0.35056876  0.20914117    -0.02800
Br793      Br  0.41920607  0.30728050  0.24807724    -0.01400
Br794      Br  0.48667325  0.37629793  0.23966590    -0.01400
Br795      Br  0.32263799  0.38893825  0.12298885    -0.01400
Br796      Br  0.38573732  0.46336088  0.12297044    -0.01400
C797        C  0.11682262  0.23534917  0.11700700    -0.02500
C798        C  0.15503510  0.25063866  0.11439547     0.07200
C799        C  0.16629786  0.27077166  0.07782972    -0.02600
C800        C  0.13938385  0.27575784  0.04407406    -0.02600
C801        C  0.10125351  0.26013228  0.04660667     0.07300
C802        C  0.08999495  0.24039572  0.08344288    -0.02800
Br803      Br  0.03675510  0.22280443  0.08942791    -0.01400
Br804      Br  0.10115245  0.20659530  0.16637624    -0.01400
Br805      Br  0.15486831  0.30404883  0.99452071    -0.01400
Br806      Br  0.21799677  0.29296976  0.07484660    -0.01400
C807        C  0.32563574  0.09821416  0.09892387    -0.02500
C808        C  0.29974139  0.13094921  0.09404911     0.07200
C809        C  0.27622746  0.13466476  0.05746201    -0.02600
C810        C  0.27980030  0.10650456  0.02491033    -0.02600
C811        C  0.30608509  0.07383753  0.02941654     0.07300
C812        C  0.32867681  0.06942919  0.06674311    -0.02800
Br813      Br  0.36174764  0.02281381  0.07557045    -0.01400
Br814      Br  0.35486089  0.09154242  0.15094066    -0.01400
Br815      Br  0.24954497  0.11405091  0.97351739    -0.01400
Br816      Br  0.23958075  0.17890125  0.05114391    -0.01400
C817        C  0.10493389  0.85196413  0.20518981    -0.02500
C818        C  0.14277244  0.85536690  0.22304575     0.07200
C819        C  0.15476556  0.89132032  0.24190117    -0.02600
C820        C  0.12845482  0.92383968  0.24364828    -0.02600
C821        C  0.09019492  0.91987492  0.22712126     0.07300
C822        C  0.07846191  0.88413742  0.20764174    -0.02800
Br823      Br  0.02544185  0.87840094  0.18644831    -0.01400
Br824      Br  0.08934639  0.80347099  0.17674967    -0.01400
Br825      Br  0.14488270  0.97385176  0.26807496    -0.01400
Br826      Br  0.20629417  0.89517386  0.26725045    -0.01400
C827        C  0.89799332  0.85947909  0.25811789    -0.02500
C828        C  0.86678746  0.86454647  0.22906023     0.07200
C829        C  0.86544108  0.89850245  0.20320353    -0.02600
C830        C  0.89414894  0.92795475  0.20722470    -0.02600
C831        C  0.92558222  0.92316959  0.23637731     0.07300
C832        C  0.92733908  0.88861664  0.26183493    -0.02800
Br833      Br  0.97018201  0.88001543  0.30124248    -0.01400
Br834      Br  0.89980158  0.81312930  0.29382751    -0.01400
Br835      Br  0.88807237  0.97604726  0.17421005    -0.01400
Br836      Br  0.82488863  0.90425001  0.16073057    -0.01400
C837        C  0.89622511  0.15346514  0.24032688    -0.02500
C838        C  0.85853113  0.13860987  0.24925485     0.07200
C839        C  0.85522635  0.09925696  0.26505654    -0.02600
C840        C  0.88873498  0.07456820  0.26846136    -0.02600
C841        C  0.92511274  0.08821689  0.25473158     0.07300
C842        C  0.92916102  0.12783485  0.24179743    -0.02800
Br843      Br  0.98015338  0.14677502  0.22629916    -0.01400
Br844      Br  0.90391350  0.20923932  0.22810725    -0.01400
Br845      Br  0.88442204  0.02089444  0.28961249    -0.01400
Br846      Br  0.80520061  0.07661056  0.27929265    -0.01400
C847        C  0.13777266  0.13728007  0.27262385    -0.02500
C848        C  0.16231179  0.13742401  0.23692512     0.07200
C849        C  0.15741604  0.10746747  0.20563792    -0.02600
C850        C  0.12689592  0.07983633  0.20888955    -0.02600
C851        C  0.09938190  0.08333691  0.24177347     0.07300
C852        C  0.10539225  0.11184692  0.27398770    -0.02800
Br853      Br  0.06760242  0.11911539  0.31835854    -0.01400
Br854      Br  0.14874494  0.17110942  0.32087742    -0.01400
Br855      Br  0.12382759  0.03651642  0.16829887    -0.01400
Br856      Br  0.19021946  0.10474440  0.15639281    -0.01400
loop_ 
_geom_bond_atom_site_label_1 
_geom_bond_atom_site_label_2 
_geom_bond_distance 
_geom_bond_site_symmetry_2 
_ccdc_geom_bond_type 
O1           Ni9   1.908   1_655  S
O1           C11   1.279       .  A
O2           Ni9   1.903   1_565  S
O2           C12   1.278       .  A
O3           Ni9   1.910   1_665  S
O3           C13   1.280       .  A
O4           Ni9   1.907       .  S
O4           C14   1.279       .  A
O5          Ni10   1.922       .  S
O5           C14   1.283       .  A
O6          Ni10   1.926   1_665  S
O6           C13   1.283       .  A
O7          Ni10   1.902   1_565  S
O7           C12   1.278       .  A
O8          Ni10   1.910   1_655  S
O8           C11   1.279       .  A
Ni9         Ni10   2.390       .  S
C11         C841   1.463       .  S
C12         C821   1.455       .  S
C13         C831   1.489       .  S
C14         C851   1.485       .  S
O15         Ni21   1.912       .  S
O15          C36   1.264       .  A
O16         Ni39   1.881       .  S
O16          C25   1.262       .  A
O17         Ni21   1.911       .  S
O17         Ni39   1.883       .  S
O17         Ni33   1.906       .  S
O17          H40   0.966       .  S
C18          O35   1.268       .  A
C18          O27   1.273       .  A
C18         C791   1.486       .  S
O19         Ni38   1.923       .  S
O19          C25   1.271       .  A
O20         Ni38   1.913       .  S
O20          C22   1.270       .  A
Ni21         O24   1.912       .  S
Ni21         O26   1.897       .  S
C22          O32   1.278       .  A
C22         C781   1.501       .  S
O23         Ni39   1.927       .  S
O23          C29   1.278       .  A
O24          C29   1.274       .  A
C25         C808   1.462       .  S
O26          C28   1.264       .  A
O27         Ni38   1.941       .  S
C28          O34   1.272       .  A
C28         C798   1.479       .  S
C29         C848   1.493       .  S
H30          O31   0.967       .  S
O31         Ni39   1.936       .  S
O31         Ni33   1.906       .  S
O31         Ni38   1.919       .  S
O32         Ni33   1.949       .  S
Ni33         O37   1.893       .  S
Ni33         O35   1.908       .  S
O34         Ni39   1.935       .  S
C36          O37   1.263       .  A
C36         C768   1.458       .  S
O41         Ni47   1.937       .  S
O41          C62   1.277       .  A
O42         Ni65   1.909       .  S
O42          C51   1.268       .  A
O43         Ni47   1.901       .  S
O43         Ni65   1.902       .  S
O43         Ni59   1.900       .  S
O43          H66   0.966       .  S
C44          O61   1.273       .  A
C44          O53   1.282       .  A
C44         C741   1.469       .  S
O45         Ni64   1.953       .  S
O45          C51   1.276       .  A
O46         Ni64   1.922       .  S
O46          C48   1.268       .  A
Ni47         O50   1.914       .  S
Ni47         O52   1.945       .  S
C48          O58   1.272       .  A
C48         C728   1.516       .  S
O49         Ni65   1.918       .  S
O49          C55   1.277       .  A
O50          C55   1.274       .  A
C51         C761   1.519       .  S
O52          C54   1.277       .  A
O53         Ni64   1.946       .  S
C54          O60   1.273       .  A
C54         C751   1.501       .  S
C55         C838   1.485       .  S
H56          O57   0.967       .  S
O57         Ni65   1.894       .  S
O57         Ni59   1.903       .  S
O57         Ni64   1.903       .  S
O58         Ni59   1.943       .  S
Ni59         O63   1.908       .  S
Ni59         O61   1.888       .  S
O60         Ni65   1.934       .  S
C62          O63   1.268       .  A
C62         C718   1.486       .  S
O67         Ni73   1.928       .  S
O67          C88   1.274       .  A
O68         Ni91   1.877       .  S
O68          C77   1.264       .  A
O69         Ni73   1.901       .  S
O69         Ni91   1.887       .  S
O69         Ni85   1.912       .  S
O69          H92   0.966       .  S
C70          O87   1.273       .  A
C70          O79   1.278       .  A
C70         C828   1.481       .  S
O71         Ni90   1.932       .  S
O71          C77   1.275       .  A
O72         Ni90   1.924       .  S
O72          C74   1.269       .  A
Ni73         O76   1.920       .  S
Ni73         O78   1.937       .  S
C74          O84   1.278       .  A
C74         C708   1.535       .  S
O75         Ni91   1.940       .  S
O75          C81   1.280       .  A
O76          C81   1.274       .  A
C77         C678   1.461       .  S
O78          C80   1.274       .  A
O79         Ni90   1.941       .  S
C80          O86   1.275       .  A
C80         C668   1.511       .  S
C81         C688   1.516       .  S
H82          O83   0.966       .  S
O83         Ni91   1.920       .  S
O83         Ni85   1.895       .  S
O83         Ni90   1.906       .  S
O84         Ni85   1.967       .  S
Ni85         O89   1.883       .  S
Ni85         O87   1.912       .  S
O86         Ni91   1.943       .  S
C88          O89   1.265       .  A
C88         C701   1.464       .  S
O93         Ni99   1.910       .  S
O93         C114   1.265       .  A
O94        Ni117   1.885       .  S
O94         C103   1.263       .  A
O95         Ni99   1.894       .  S
O95        Ni117   1.878       .  S
O95        Ni111   1.897       .  S
O95         H118   0.965       .  S
C96         O113   1.272       .  A
C96         O105   1.273       .  A
C96         C818   1.457       .  S
O97        Ni116   1.913       .  S
O97         C103   1.266       .  A
O98        Ni116   1.912       .  S
O98         C100   1.267       .  A
Ni99        O102   1.908       .  S
Ni99        O104   1.894       .  S
C100        O110   1.269       .  A
C100        C661   1.508       .  S
O101       Ni117   1.904       .  S
O101        C107   1.273       .  A
O102        C107   1.276       .  A
C103        C631   1.456       .  S
O104        C106   1.263       .  A
O105       Ni116   1.909       .  S
C106        O112   1.276       .  A
C106        C618   1.481       .  S
C107        C638   1.484       .  S
H108        O109   0.974       .  S
O109       Ni117   1.911       .  S
O109       Ni111   1.889       .  S
O109       Ni116   1.911       .  S
O110       Ni111   1.932       .  S
Ni111       O115   1.874       .  S
Ni111       O113   1.905       .  S
O112       Ni117   1.948       .  S
C114        O115   1.260       .  A
C114        C648   1.439       .  S
O119       Ni127   1.914       .  S
O119        C129   1.282       .  A
O120       Ni127   1.913   1_545  S
O120        C130   1.281       .  A
O121       Ni127   1.892       .  S
O121        C131   1.276   1_556  A
O122       Ni127   1.902   1_545  S
O122        C132   1.277       .  A
O123       Ni128   1.898   1_545  S
O123        C132   1.278       .  A
O124       Ni128   1.893       .  S
O124        C131   1.277   1_556  A
O125       Ni128   1.894   1_545  S
O125        C130   1.277       .  A
O126       Ni128   1.894       .  S
O126        C129   1.276       .  A
Ni127      Ni128   2.395       .  S
C129        C608   1.470       .  S
C130        C811   1.467   1_556  S
C131        C651   1.444       .  S
C132        C598   1.453       .  S
O133       Ni141   1.924       .  S
O133        C143   1.282   1_556  A
O134       Ni141   1.921   1_655  S
O134        C144   1.282       .  A
O135       Ni141   1.922       .  S
O135        C145   1.282       .  A
O136       Ni141   1.924   1_655  S
O136        C146   1.280   1_556  A
O137       Ni142   1.933   1_655  S
O137        C146   1.283   1_556  A
O138       Ni142   1.927       .  S
O138        C145   1.283       .  A
O139       Ni142   1.925   1_655  S
O139        C144   1.282       .  A
O140       Ni142   1.920       .  S
O140        C143   1.280   1_556  A
Ni141      Ni142   2.379       .  S
C143        C801   1.481       .  S
C144        C578   1.488       .  S
C145        C588   1.490       .  S
C146        C758   1.525       .  S
O147       Ni155   1.944   1_554  S
O147        C157   1.286       .  A
O148       Ni155   1.955   1_545  S
O148        C158   1.288       .  A
O149       Ni155   1.936       .  S
O149        C159   1.283       .  A
O150       Ni155   1.939   1_544  S
O150        C160   1.285       .  A
O151       Ni156   1.927   1_544  S
O151        C160   1.284       .  A
O152       Ni156   1.927       .  S
O152        C159   1.282       .  A
O153       Ni156   1.945   1_545  S
O153        C158   1.285       .  A
O154       Ni156   1.949   1_554  S
O154        C157   1.287       .  A
Ni155      Ni156   2.374       .  S
C157        C711   1.516       .  S
C158        C571   1.515       .  S
C159        C558   1.522       .  S
C160        C748   1.505       .  S
O161       Ni169   1.926       .  S
O161        C171   1.283   1_556  A
O162       Ni169   1.931   1_655  S
O162        C172   1.284       .  A
O163       Ni169   1.900       .  S
O163        C173   1.277       .  A
O164       Ni169   1.906   1_654  S
O164        C174   1.279       .  A
O165       Ni170   1.902   1_654  S
O165        C174   1.279       .  A
O166       Ni170   1.898       .  S
O166        C173   1.278       .  A
O167       Ni170   1.915   1_655  S
O167        C172   1.281       .  A
O168       Ni170   1.912   1_554  S
O168        C171   1.280       .  A
Ni169      Ni170   2.391       .  S
C171        C658   1.485       .  S
C172        C548   1.485       .  S
C173        C538   1.454       .  S
C174        C698   1.465       .  S
O175       Ni181   1.918       .  S
O175        C196   1.267       .  A
O176       Ni199   1.891       .  S
O176        C185   1.259       .  A
O177       Ni181   1.905       .  S
O177       Ni199   1.884       .  S
O177       Ni193   1.900       .  S
O177        H200   0.966       .  S
C178        O195   1.274       .  A
C178        O187   1.273       .  A
C178        C541   1.453       .  S
O179       Ni198   1.897       .  S
O179        C185   1.262       .  A
O180       Ni198   1.918       .  S
O180        C182   1.270       .  A
Ni181       O184   1.915       .  S
Ni181       O186   1.905       .  S
C182        O192   1.272       .  A
C182        C528   1.502       .  S
O183       Ni199   1.886       .  S
O183        C189   1.269       .  A
O184        C189   1.278       .  A
C185        C498   1.463       .  S
O186        C188   1.265       .  A
O187       Ni198   1.901       .  S
C188        O194   1.274       .  A
C188        C518   1.490       .  S
C189        C508   1.469       .  S
H190        O191   0.966       .  S
O191       Ni199   1.918       .  S
O191       Ni193   1.894       .  S
O191       Ni198   1.919       .  S
O192       Ni193   1.936       .  S
Ni193       O197   1.890       .  S
Ni193       O195   1.904       .  S
O194       Ni199   1.950       .  S
C196        O197   1.265       .  A
C196        C611   1.466       .  S
O201       Ni209   1.907   1_655  S
O201        C211   1.278       .  A
O202       Ni209   1.921   1_545  S
O202        C212   1.281       .  A
O203       Ni209   1.928   1_645  S
O203        C213   1.282       .  A
O204       Ni209   1.927       .  S
O204        C214   1.282       .  A
O205       Ni210   1.934       .  S
O205        C214   1.283       .  A
O206       Ni210   1.936   1_645  S
O206        C213   1.284       .  A
O207       Ni210   1.908   1_545  S
O207        C212   1.278       .  A
O208       Ni210   1.918   1_655  S
O208        C211   1.280       .  A
Ni209      Ni210   2.378       .  S
C211        C468   1.466       .  S
C212        C488   1.474       .  S
C213        C478   1.522       .  S
C214        C531   1.521       .  S
O215       Ni221   1.924       .  S
O215        C236   1.268       .  A
O216       Ni239   1.887       .  S
O216        C225   1.264       .  A
O217       Ni221   1.917       .  S
O217       Ni239   1.896       .  S
O217       Ni233   1.908       .  S
O217        H240   0.966       .  S
C218        O235   1.269       .  A
C218        O227   1.269       .  A
C218        C491   1.482       .  S
O219       Ni238   1.918       .  S
O219        C225   1.267       .  A
O220       Ni238   1.911       .  S
O220        C222   1.269       .  A
Ni221       O224   1.920       .  S
Ni221       O226   1.902       .  S
C222        O232   1.276       .  A
C222        C591   1.518       .  S
O223       Ni239   1.915       .  S
O223        C229   1.272       .  A
O224        C229   1.274       .  A
C225        C448   1.468       .  S
O226        C228   1.267       .  A
O227       Ni238   1.922       .  S
C228        O234   1.278       .  A
C228        C438   1.491       .  S
C229        C461   1.491       .  S
H230        O231   0.965       .  S
O231       Ni239   1.925       .  S
O231       Ni233   1.909       .  S
O231       Ni238   1.926       .  S
O232       Ni233   1.953       .  S
Ni233       O237   1.886       .  S
Ni233       O235   1.910       .  S
O234       Ni239   1.955       .  S
C236        O237   1.262       .  A
C236        C601   1.456       .  S
O241       Ni247   1.950       .  S
O241        C262   1.279       .  A
O242       Ni265   1.891       .  S
O242        C251   1.267       .  A
O243       Ni247   1.915       .  S
O243       Ni265   1.899       .  S
O243       Ni259   1.919       .  S
O243        H266   0.966       .  S
C244        O261   1.275       .  A
C244        O253   1.281       .  A
C244        C481   1.497       .  S
O245       Ni264   1.953       .  S
O245        C251   1.280       .  A
O246       Ni264   1.928       .  S
O246        C248   1.274       .  A
Ni247       O250   1.941       .  S
Ni247       O252   1.941       .  S
C248        O258   1.284       .  A
C248        C568   1.530       .  S
O249       Ni265   1.932       .  S
O249        C255   1.278       .  A
O250        C255   1.278       .  A
C251        C418   1.489       .  S
O252        C254   1.275       .  A
O253       Ni264   1.951       .  S
C254        O260   1.277       .  A
C254        C408   1.513       .  S
C255        C428   1.523       .  S
H256        O257   0.966       .  S
O257       Ni265   1.920       .  S
O257       Ni259   1.901       .  S
O257       Ni264   1.913       .  S
O258       Ni259   1.973       .  S
Ni259       O263   1.900       .  S
Ni259       O261   1.916       .  S
O260       Ni265   1.952       .  S
C262        O263   1.269       .  A
C262        C581   1.483       .  S
O267       Ni273   1.934       .  S
O267        C288   1.273       .  A
O268       Ni291   1.894       .  S
O268        C277   1.266       .  A
O269       Ni273   1.911       .  S
O269       Ni291   1.895       .  S
O269       Ni285   1.904       .  S
O269        H292   0.966       .  S
C270        O287   1.272       .  A
C270        O279   1.276       .  A
C270        C398   1.480       .  S
O271       Ni290   1.950       .  S
O271        C277   1.276       .  A
O272       Ni290   1.917       .  S
O272        C274   1.274       .  A
Ni273       O276   1.915       .  S
Ni273       O278   1.925       .  S
C274        O284   1.275       .  A
C274        C388   1.513       .  S
O275       Ni291   1.919       .  S
O275        C281   1.277       .  A
O276        C281   1.276       .  A
C277        C551   1.487       .  S
O278        C280   1.273       .  A
O279       Ni290   1.933       .  S
C280        O286   1.272       .  A
C280        C561   1.500       .  S
C281        C471   1.476       .  S
H282        O283   0.966       .  S
O283       Ni291   1.918       .  S
O283       Ni285   1.906       .  S
O283       Ni290   1.920       .  S
O284       Ni285   1.941       .  S
Ni285       O289   1.900       .  S
Ni285       O287   1.910       .  S
O286       Ni291   1.931       .  S
C288        O289   1.266       .  A
C288        C378   1.477       .  S
O293       Ni301   1.913       .  S
O293        C303   1.280       .  A
O294       Ni301   1.915       .  S
O294        C304   1.280       .  A
O295       Ni301   1.926       .  S
O295        C305   1.283       .  A
O296       Ni301   1.932       .  S
O296        C306   1.284       .  A
O297       Ni302   1.929       .  S
O297        C306   1.283       .  A
O298       Ni302   1.930       .  S
O298        C305   1.284       .  A
O299       Ni302   1.922       .  S
O299        C304   1.282       .  A
O300       Ni302   1.916       .  S
O300        C303   1.281       .  A
Ni301      Ni302   2.385       .  S
C303        C458   1.484       .  S
C304        C401   1.483       .  S
C305        C521   1.494       .  S
C306        C431   1.493       .  S
O307       Ni315   1.896       .  S
O307        C317   1.277       .  A
O308       Ni315   1.902       .  S
O308        C318   1.278       .  A
O309       Ni315   1.920       .  S
O309        C319   1.281       .  A
O310       Ni315   1.924       .  S
O310        C320   1.283       .  A
O311       Ni316   1.922       .  S
O311        C320   1.282       .  A
O312       Ni316   1.920       .  S
O312        C319   1.282       .  A
O313       Ni316   1.911       .  S
O313        C318   1.280       .  A
O314       Ni316   1.906       .  S
O314        C317   1.280       .  A
Ni315      Ni316   2.389       .  S
C317        C641   1.464       .  S
C318        C738   1.468       .  S
C319        C788   1.483       .  S
C320        C691   1.487       .  S
O321       Ni329   1.933       .  S
O321        C331   1.284       .  A
O322       Ni329   1.936       .  S
O322        C332   1.285       .  A
O323       Ni329   1.933       .  S
O323        C333   1.284       .  A
O324       Ni329   1.930       .  S
O324        C334   1.284       .  A
O325       Ni330   1.925       .  S
O325        C334   1.281       .  A
O326       Ni330   1.928       .  S
O326        C333   1.283       .  A
O327       Ni330   1.942       .  S
O327        C332   1.285       .  A
O328       Ni330   1.951       .  S
O328        C331   1.287       .  A
Ni329      Ni330   2.379       .  S
C331        C411   1.512       .  S
C332        C671   1.506       .  S
C333        C731   1.494       .  S
C334        C391   1.508       .  S
O335       Ni343   1.906       .  S
O335        C345   1.279       .  A
O336       Ni343   1.910       .  S
O336        C346   1.280       .  A
O337       Ni343   1.901       .  S
O337        C347   1.278       .  A
O338       Ni343   1.893       .  S
O338        C348   1.278       .  A
O339       Ni344   1.895       .  S
O339        C348   1.276       .  A
O340       Ni344   1.901       .  S
O340        C347   1.278       .  A
O341       Ni344   1.929       .  S
O341        C346   1.284       .  A
O342       Ni344   1.930       .  S
O342        C345   1.284       .  A
Ni343      Ni344   2.392       .  S
C345        C381   1.480       .  S
C346        C621   1.483       .  S
C347        C681   1.458       .  S
C348        C511   1.453       .  S
O349       Ni357   1.900       .  S
O349        C359   1.278       .  A
O350       Ni357   1.894       .  S
O350        C360   1.279       .  A
O351       Ni357   1.893       .  S
O351        C361   1.276       .  A
O352       Ni357   1.890       .  S
O352        C362   1.276       .  A
O353       Ni358   1.910       .  S
O353        C362   1.280       .  A
O354       Ni358   1.916       .  S
O354        C361   1.281       .  A
O355       Ni358   1.905       .  S
O355        C360   1.277       .  A
O356       Ni358   1.905       .  S
O356        C359   1.279       .  A
Ni357      Ni358   2.396       .  S
C359        C771   1.462       .  S
C360        C501   1.457       .  S
C361        C451   1.464       .  S
C362        C628   1.455       .  S
O363       Ni371   1.922       .  S
O363        C373   1.281       .  A
O364       Ni371   1.920       .  S
O364        C374   1.281       .  A
O365       Ni371   1.937       .  S
O365        C375   1.286       .  A
O366       Ni371   1.942       .  S
O366        C376   1.286       .  A
O367       Ni372   1.917       .  S
O367        C376   1.281       .  A
O368       Ni372   1.916       .  S
O368        C375   1.280       .  A
O369       Ni372   1.922       .  S
O369        C374   1.282       .  A
O370       Ni372   1.923       .  S
O370        C373   1.283       .  A
Ni371      Ni372   2.387       .  S
C373        C421   1.486       .  S
C374        C778   1.481       .  S
C375        C721   1.491       .  S
C376        C441   1.492       .  S
C377        C378   1.411       .  A
C377        C382   1.410       .  A
C377       Br384   1.931       .  S
C378        C379   1.408       .  A
C379        C380   1.407       .  A
C379       Br386   1.929       .  S
C380        C381   1.414       .  A
C380       Br385   1.934       .  S
C381        C382   1.412       .  A
C382       Br383   1.931       .  S
C387        C388   1.420       .  A
C387        C392   1.416       .  A
C387       Br394   1.937       .  S
C388        C389   1.425       .  A
C389        C390   1.416       .  A
C389       Br396   1.938       .  S
C390        C391   1.417       .  A
C390       Br395   1.938       .  S
C391        C392   1.420       .  A
C392       Br393   1.936       .  S
C397        C398   1.410       .  A
C397        C402   1.411       .  A
C397       Br404   1.930       .  S
C398        C399   1.412       .  A
C399        C400   1.407       .  A
C399       Br406   1.931       .  S
C400        C401   1.413       .  A
C400       Br405   1.935       .  S
C401        C402   1.414       .  A
C402       Br403   1.931       .  S
C407        C408   1.416       .  A
C407        C412   1.417       .  A
C407       Br414   1.924       .  S
C408        C409   1.414       .  A
C409        C410   1.426       .  A
C409       Br416   1.926       .  S
C410        C411   1.418       .  A
C410       Br415   1.927       .  S
C411        C412   1.415       .  A
C412       Br413   1.935       .  S
C417        C418   1.416       .  A
C417        C422   1.409       .  A
C417       Br424   1.936       .  S
C418        C419   1.414       .  A
C419        C420   1.413       .  A
C419       Br426   1.932       .  S
C420        C421   1.413       .  A
C420       Br425   1.931       .  S
C421        C422   1.411       .  A
C422       Br423   1.934       .  S
C427        C428   1.429       .  A
C427        C432   1.416       .  A
C427       Br434   1.937       .  S
C428        C429   1.431       .  A
C429        C430   1.417       .  A
C429       Br436   1.937       .  S
C430        C431   1.408       .  A
C430       Br435   1.935       .  S
C431        C432   1.407       .  A
C432       Br433   1.934       .  S
C437        C438   1.415       .  A
C437        C442   1.408       .  A
C437       Br444   1.932       .  S
C438        C439   1.410       .  A
C439        C440   1.418       .  A
C439       Br446   1.927       .  S
C440        C441   1.415       .  A
C440       Br445   1.926       .  S
C441        C442   1.412       .  A
C442       Br443   1.935       .  S
C447        C448   1.412       .  A
C447        C452   1.405       .  A
C447       Br454   1.930       .  S
C448        C449   1.410       .  A
C449        C450   1.399       .  A
C449       Br456   1.935       .  S
C450        C451   1.409       .  A
C450       Br455   1.935       .  S
C451        C452   1.409       .  A
C452       Br453   1.933       .  S
C457        C458   1.412       .  A
C457        C462   1.407       .  A
C457       Br464   1.936       .  S
C458        C459   1.413       .  A
C459        C460   1.409       .  A
C459       Br466   1.936       .  S
C460        C461   1.419       .  A
C460       Br465   1.935       .  S
C461        C462   1.417       .  A
C462       Br463   1.936       .  S
C467        C468   1.405       .  A
C467        C472   1.401       .  A
C467       Br474   1.930       .  S
C468        C469   1.406       .  A
C469        C470   1.409       .  A
C469       Br476   1.930       .  S
C470        C471   1.413       .  A
C470       Br475   1.930       .  S
C471        C472   1.416       .  A
C472       Br473   1.937       .  S
C477        C478   1.429       .  A
C477        C482   1.417       .  A
C477       Br484   1.936       .  S
C478        C479   1.430       .  A
C479        C480   1.417       .  A
C479       Br486   1.936       .  S
C480        C481   1.410       .  A
C480       Br485   1.938       .  S
C481        C482   1.409       .  A
C482       Br483   1.935       .  S
C487        C488   1.407       .  A
C487        C492   1.405       .  A
C487       Br494   1.930       .  S
C488        C489   1.409       .  A
C489        C490   1.408       .  A
C489       Br496   1.932       .  S
C490        C491   1.413       .  A
C490       Br495   1.930       .  S
C491        C492   1.417       .  A
C492       Br493   1.935       .  S
C497        C498   1.407       .  A
C497        C502   1.404       .  A
C497       Br504   1.930       .  S
C498        C499   1.414       .  A
C499        C500   1.396       .  A
C499       Br506   1.931       .  S
C500        C501   1.403       .  A
C500       Br505   1.936       .  S
C501        C502   1.411       .  A
C502       Br503   1.932       .  S
C507        C508   1.419       .  A
C507        C512   1.397       .  A
C507       Br514   1.939       .  S
C508        C509   1.415       .  A
C509        C510   1.398       .  A
C509       Br516   1.937       .  S
C510        C511   1.406       .  A
C510       Br515   1.934       .  S
C511        C512   1.406       .  A
C512       Br513   1.938       .  S
C517        C518   1.413       .  A
C517        C522   1.411       .  A
C517       Br524   1.928       .  S
C518        C519   1.409       .  A
C519        C520   1.416       .  A
C519       Br526   1.927       .  S
C520        C521   1.417       .  A
C520       Br525   1.929       .  S
C521        C522   1.412       .  A
C522       Br523   1.933       .  S
C527        C528   1.414       .  A
C527        C532   1.416       .  A
C527       Br534   1.938       .  S
C528        C529   1.411       .  A
C529        C530   1.418       .  A
C529       Br536   1.935       .  S
C530        C531   1.428       .  A
C530       Br535   1.935       .  S
C531        C532   1.428       .  A
C532       Br533   1.939       .  S
C537        C538   1.409       .  A
C537        C542   1.401       .  A
C537       Br544   1.930       .  S
C538        C539   1.407       .  A
C539        C540   1.395       .  A
C539       Br546   1.936       .  S
C540        C541   1.410       .  A
C540       Br545   1.934       .  S
C541        C542   1.405       .  A
C542       Br543   1.931       .  S
C547        C548   1.415       .  A
C547        C552   1.415       .  A
C547       Br554   1.931       .  S
C548        C549   1.411       .  A
C549        C550   1.406       .  A
C549       Br556   1.934       .  S
C550        C551   1.413       .  A
C550       Br555   1.935       .  S
C551        C552   1.413       .  A
C552       Br553   1.929       .  S
C557        C558   1.430       .  A
C557        C562   1.419       .  A
C557       Br564   1.935       .  S
C558        C559   1.428       .  A
C559        C560   1.415       .  A
C559       Br566   1.939       .  S
C560        C561   1.414       .  A
C560       Br565   1.938       .  S
C561        C562   1.409       .  A
C562       Br563   1.934       .  S
C567        C568   1.429       .  A
C567        C572   1.423       .  A
C567       Br574   1.934       .  S
C568        C569   1.422       .  A
C569        C570   1.427       .  A
C569       Br576   1.929       .  S
C570        C571   1.414       .  A
C570       Br575   1.926       .  S
C571        C572   1.411       .  A
C572       Br573   1.931       .  S
C577        C578   1.415       .  A
C577        C582   1.410       .  A
C577       Br584   1.929       .  S
C578        C579   1.414       .  A
C579        C580   1.412       .  A
C579       Br586   1.932       .  S
C580        C581   1.411       .  A
C580       Br585   1.929       .  S
C581        C582   1.409       .  A
C582       Br583   1.931       .  S
C587        C588   1.409       .  A
C587        C592   1.415       .  A
C587       Br594   1.935       .  S
C588        C589   1.408       .  A
C589        C590   1.413       .  A
C589       Br596   1.936       .  S
C590        C591   1.428       .  A
C590       Br595   1.935       .  S
C591        C592   1.428       .  A
C592       Br593   1.936       .  S
C597        C598   1.405       .  A
C597        C602   1.400       .  A
C597       Br604   1.932       .  S
C598        C599   1.407       .  A
C599        C600   1.400       .  A
C599       Br606   1.932       .  S
C600        C601   1.407       .  A
C600       Br605   1.932       .  S
C601        C602   1.406       .  A
C602       Br603   1.925       .  S
C607        C608   1.416       .  A
C607        C612   1.401       .  A
C607       Br614   1.936       .  S
C608        C609   1.410       .  A
C609        C610   1.404       .  A
C609       Br616   1.934       .  S
C610        C611   1.413       .  A
C610       Br615   1.934       .  S
C611        C612   1.406       .  A
C612       Br613   1.936       .  S
C617        C618   1.413       .  A
C617        C622   1.406       .  A
C617       Br624   1.931       .  S
C618        C619   1.408       .  A
C619        C620   1.414       .  A
C619       Br626   1.928       .  S
C620        C621   1.416       .  A
C620       Br625   1.930       .  S
C621        C622   1.411       .  A
C622       Br623   1.936       .  S
C627        C628   1.407       .  A
C627        C632   1.400       .  A
C627       Br634   1.932       .  S
C628        C629   1.409       .  A
C629        C630   1.398       .  A
C629       Br636   1.934       .  S
C630        C631   1.409       .  A
C630       Br635   1.936       .  S
C631        C632   1.408       .  A
C632       Br633   1.930       .  S
C637        C638   1.420       .  A
C637        C642   1.399       .  A
C637       Br644   1.940       .  S
C638        C639   1.422       .  A
C639        C640   1.404       .  A
C639       Br646   1.939       .  S
C640        C641   1.408       .  A
C640       Br645   1.937       .  S
C641        C642   1.407       .  A
C642       Br643   1.937       .  S
C647        C648   1.405       .  A
C647        C652   1.395       .  A
C647       Br654   1.934       .  S
C648        C649   1.402       .  A
C649        C650   1.394       .  A
C649       Br656   1.930       .  S
C650        C651   1.407       .  A
C650       Br655   1.933       .  S
C651        C652   1.407       .  A
C652       Br653   1.933   1_554  S
C657        C658   1.409       .  A
C657        C662   1.412       .  A
C657       Br664   1.938   1_554  S
C658        C659   1.408       .  A
C659        C660   1.411       .  A
C659       Br666   1.935       .  S
C660        C661   1.424       .  A
C660       Br665   1.934       .  S
C661        C662   1.426       .  A
C662       Br663   1.935       .  S
C667        C668   1.419       .  A
C667        C672   1.416       .  A
C667       Br674   1.927       .  S
C668        C669   1.416       .  A
C669        C670   1.423       .  A
C669       Br676   1.929       .  S
C670        C671   1.417       .  A
C670       Br675   1.929       .  S
C671        C672   1.413       .  A
C672       Br673   1.934       .  S
C677        C678   1.408       .  A
C677        C682   1.401       .  A
C677       Br684   1.932       .  S
C678        C679   1.410       .  A
C679        C680   1.401       .  A
C679       Br686   1.934       .  S
C680        C681   1.408       .  A
C680       Br685   1.934       .  S
C681        C682   1.408       .  A
C682       Br683   1.933       .  S
C687        C688   1.428       .  A
C687        C692   1.415       .  A
C687       Br694   1.937       .  S
C688        C689   1.433       .  A
C689        C690   1.411       .  A
C689       Br696   1.943       .  S
C690        C691   1.407       .  A
C690       Br695   1.939       .  S
C691        C692   1.408       .  A
C692       Br693   1.935       .  S
C697        C698   1.411       .  A
C697        C702   1.401       .  A
C697       Br704   1.935       .  S
C698        C699   1.410       .  A
C699        C700   1.404       .  A
C699       Br706   1.933       .  S
C700        C701   1.410       .  A
C700       Br705   1.932       .  S
C701        C702   1.408       .  A
C702       Br703   1.933       .  S
C707        C708   1.433       .  A
C707        C712   1.423       .  A
C707       Br714   1.938       .  S
C708        C709   1.429       .  A
C709        C710   1.425       .  A
C709       Br716   1.935       .  S
C710        C711   1.414       .  A
C710       Br715   1.929   1_554  S
C711        C712   1.413       .  A
C712       Br713   1.935       .  S
C717        C718   1.412       .  A
C717        C722   1.413       .  A
C717       Br724   1.932       .  S
C718        C719   1.410       .  A
C719        C720   1.412       .  A
C719       Br726   1.932       .  S
C720        C721   1.417       .  A
C720       Br725   1.933       .  S
C721        C722   1.413       .  A
C722       Br723   1.931       .  S
C727        C728   1.424       .  A
C727        C732   1.417       .  A
C727       Br734   1.934       .  S
C728        C729   1.426       .  A
C729        C730   1.416       .  A
C729       Br736   1.936       .  S
C730        C731   1.411       .  A
C730       Br735   1.935       .  S
C731        C732   1.409       .  A
C732       Br733   1.932       .  S
C737        C738   1.411       .  A
C737        C742   1.403       .  A
C737       Br744   1.934       .  S
C738        C739   1.411       .  A
C739        C740   1.405       .  A
C739       Br746   1.934       .  S
C740        C741   1.410       .  A
C740       Br745   1.931       .  S
C741        C742   1.409       .  A
C742       Br743   1.933       .  S
C747        C748   1.419       .  A
C747        C752   1.421       .  A
C747       Br754   1.928       .  S
C748        C749   1.416       .  A
C749        C750   1.412       .  A
C749       Br756   1.937       .  S
C750        C751   1.413       .  A
C750       Br755   1.923       .  S
C751        C752   1.412       .  A
C752       Br753   1.928       .  S
C757        C758   1.429       .  A
C757        C762   1.419       .  A
C757       Br764   1.943       .  S
C758        C759   1.427       .  A
C759        C760   1.419       .  A
C759       Br766   1.942       .  S
C760        C761   1.424       .  A
C760       Br765   1.943       .  S
C761        C762   1.423       .  A
C762       Br763   1.945       .  S
C767        C768   1.406       .  A
C767        C772   1.401       .  A
C767       Br774   1.933       .  S
C768        C769   1.410       .  A
C769        C770   1.401       .  A
C769       Br776   1.935       .  S
C770        C771   1.409       .  A
C770       Br775   1.935       .  S
C771        C772   1.412       .  A
C772       Br773   1.933       .  S
C777        C778   1.409       .  A
C777        C782   1.412       .  A
C777       Br784   1.935       .  S
C778        C779   1.405       .  A
C779        C780   1.409       .  A
C779       Br786   1.931       .  S
C780        C781   1.421       .  A
C780       Br785   1.933       .  S
C781        C782   1.425       .  A
C782       Br783   1.936       .  S
C787        C788   1.410       .  A
C787        C792   1.408       .  A
C787       Br794   1.934       .  S
C788        C789   1.414       .  A
C789        C790   1.412       .  A
C789       Br796   1.932       .  S
C790        C791   1.413       .  A
C790       Br795   1.931       .  S
C791        C792   1.414       .  A
C792       Br793   1.931       .  S
C797        C798   1.412       .  A
C797        C802   1.406       .  A
C797       Br804   1.933       .  S
C798        C799   1.409       .  A
C799        C800   1.412       .  A
C799       Br806   1.929       .  S
C800        C801   1.413       .  A
C800       Br805   1.928   1_554  S
C801        C802   1.410       .  A
C802       Br803   1.930       .  S
C807        C808   1.406       .  A
C807        C812   1.404       .  A
C807       Br814   1.932       .  S
C808        C809   1.409       .  A
C809        C810   1.400       .  A
C809       Br816   1.935       .  S
C810        C811   1.412       .  A
C810       Br815   1.937   1_554  S
C811        C812   1.414       .  A
C812       Br813   1.933       .  S
C817        C818   1.409       .  A
C817        C822   1.398       .  A
C817       Br824   1.932       .  S
C818        C819   1.406       .  A
C819        C820   1.402       .  A
C819       Br826   1.930       .  S
C820        C821   1.408       .  A
C820       Br825   1.930       .  S
C821        C822   1.406       .  A
C822       Br823   1.934       .  S
C827        C828   1.409       .  A
C827        C832   1.413       .  A
C827       Br834   1.931       .  S
C828        C829   1.409       .  A
C829        C830   1.405       .  A
C829       Br836   1.929       .  S
C830        C831   1.416       .  A
C830       Br835   1.937       .  S
C831        C832   1.418       .  A
C832       Br833   1.932       .  S
C837        C838   1.419       .  A
C837        C842   1.404       .  A
C837       Br844   1.935       .  S
C838        C839   1.422       .  A
C839        C840   1.404       .  A
C839       Br846   1.939       .  S
C840        C841   1.405       .  A
C840       Br845   1.934       .  S
C841        C842   1.403       .  A
C842       Br843   1.932       .  S
C847        C848   1.418       .  A
C847        C852   1.407       .  A
C847       Br854   1.936       .  S
C848        C849   1.418       .  A
C849        C850   1.410       .  A
C849       Br856   1.936       .  S
C850        C851   1.416       .  A
C850       Br855   1.938       .  S
C851        C852   1.410       .  A
C852       Br853   1.934       .  S
