geometry optimzed in LAMMPS
_audit_creation_date              2020-11-30 
_audit_creation_method            'lammps2cif' 
_symmetry_space_group_name_H-M    'P1' 
_symmetry_Int_Tables_number       1 
_symmetry_cell_setting            triclinic 
loop_ 
_symmetry_equiv_pos_as_xyz 
  x,y,z 
_cell_length_a                    43.451691909651316 
_cell_length_b                    44.49349653111514 
_cell_length_c                    33.45591116492294 
_cell_angle_alpha                 90.24152502373585 
_cell_angle_beta                  90.24744013098837 
_cell_angle_gamma                 89.78144123163635 
loop_ 
_atom_site_label 
_atom_site_type_symbol 
_atom_site_fract_x 
_atom_site_fract_y 
_atom_site_fract_z 
_atom_site_charge 
O1          O  0.85627667  0.10031129  0.57570699    -0.82930
C2          C  0.87197964  0.99177345  0.65876577     0.96420
O3          O  0.88536513  0.99828933  0.62645326    -0.72050
O4          O  0.84581313  0.01342936  0.57072209    -0.75640
Al5        Al  0.88146585  0.03235267  0.59189253     1.48980
C6          C  0.82444006  0.02753619  0.55336945     0.91670
O7          O  0.80080637  0.05796064  0.64264712    -0.81860
O8          O  0.87960999  0.09497870  0.67868014    -0.75420
Al9        Al  0.83003042  0.07813622  0.60984556     1.90120
O10         O  0.82880908  0.05999297  0.69712312    -0.74490
O11         O  0.91354205  0.04649202  0.67251578    -0.74340
O12         O  0.86177921  0.01185247  0.68194186    -0.80000
O13         O  0.91939813  0.04865964  0.60792679    -0.78200
O14         O  0.86053050  0.05444510  0.62653372    -1.14340
O15         O  0.88156245  0.06200943  0.55035850    -0.73530
C16         C  0.87312671  0.08918855  0.54864745     0.97180
C17         C  0.80296915  0.05622804  0.68034850     0.93580
Al18       Al  0.87013800  0.05341821  0.67845944     1.55560
O19         O  0.81703257  0.05351905  0.56522906    -0.78150
C20         C  0.93063554  0.04988569  0.64260064     0.97750
C21         C  0.86136385  0.11542575  0.66761067     0.92630
O22         O  0.83670370  0.10913773  0.64924000    -0.83470
O23         O  0.84875368  0.34823837  0.57870549    -0.82930
C24         C  0.87683588  0.24287161  0.66332544     0.96420
O25         O  0.89048935  0.25135218  0.63186108    -0.72050
O26         O  0.85126242  0.26055279  0.57325617    -0.75640
Al27       Al  0.88315478  0.28446079  0.59627101     1.48980
C28         C  0.82875620  0.27209567  0.55508507     0.91670
O29         O  0.79812751  0.29919992  0.64192506    -0.81860
O30         O  0.86985598  0.34728759  0.68092452    -0.75420
Al31       Al  0.82520220  0.32263780  0.61116183     1.90120
O32         O  0.82315751  0.30609510  0.69833965    -0.74490
O33         O  0.91042381  0.30214589  0.67824359    -0.74340
O34         O  0.86302652  0.26172694  0.68534566    -0.80000
O35         O  0.91802552  0.30585150  0.61394785    -0.78200
O36         O  0.85814121  0.30348752  0.62956020    -1.14340
O37         O  0.88020238  0.31398824  0.55430416    -0.73530
C38         C  0.86722216  0.33946851  0.55218559     0.97180
C39         C  0.79828623  0.30090551  0.67954773     0.93580
Al40       Al  0.86600533  0.30422341  0.68183290     1.55560
O41         O  0.81746971  0.29663869  0.56683292    -0.78150
C42         C  0.92805885  0.30713000  0.64915457     0.97750
C43         C  0.84924465  0.36481599  0.66741773     0.92630
O44         O  0.82589695  0.35394270  0.65035357    -0.83470
O45         O  0.14425759  0.01942761  0.58038587    -0.82930
C46         C  0.11580064  0.12817805  0.65981114     0.96420
O47         O  0.10202760  0.11900533  0.62852392    -0.72050
O48         O  0.14078920  0.10637669  0.57173835    -0.75640
Al49       Al  0.10906249  0.08393958  0.59533250     1.48980
C50         C  0.16232988  0.09407650  0.55284872     0.91670
O51         O  0.19254549  0.07032694  0.64593088    -0.81860
O52         O  0.11826777  0.02519184  0.68248836    -0.75420
Al53       Al  0.16638621  0.04589096  0.61384815     1.90120
O54         O  0.16565423  0.06438669  0.70040195    -0.74490
O55         O  0.07911853  0.07160565  0.67593288    -0.74340
O56         O  0.12885607  0.10978264  0.68316814    -0.80000
O57         O  0.07414512  0.06377981  0.61220415    -0.78200
O58         O  0.13312163  0.06592169  0.62991996    -1.14340
O59         O  0.11202688  0.05268975  0.55604398    -0.73530
C60         C  0.12586774  0.02781853  0.55351143     0.96700
C61         C  0.19093251  0.07043360  0.68366724     0.93580
Al62       Al  0.12375637  0.06749726  0.68163784     1.55560
O63         O  0.17543234  0.07102391  0.56728059    -0.78150
C64         C  0.06217902  0.06686981  0.64576814     0.97750
C65         C  0.13862686  0.50628910  0.67211014     0.92630
O66         O  0.16287708  0.01497194  0.65445425    -0.83470
O67         O  0.13473806  0.27266248  0.57940992    -0.82930
C68         C  0.11569270  0.37911617  0.66578139     0.96420
O69         O  0.10052927  0.37195173  0.63480902    -0.72050
O70         O  0.14123235  0.36023134  0.58123902    -0.75640
Al71       Al  0.10641759  0.33886249  0.59823611     1.48980
C72         C  0.15987654  0.34826898  0.55749016     0.91670
O73         O  0.18955799  0.31829821  0.64182411    -0.81860
O74         O  0.11518296  0.27483895  0.68103687    -0.75420
Al75       Al  0.16087769  0.29618704  0.61095002     1.90120
O76         O  0.16455152  0.31267868  0.69814086    -0.74490
O77         O  0.07755560  0.32156559  0.67813285    -0.74340
O78         O  0.12842127  0.35917613  0.68697928    -0.80000
O79         O  0.06936862  0.32047784  0.61337557    -0.78200
O80         O  0.12935476  0.31719447  0.63051653    -1.14340
O81         O  0.10763147  0.30962335  0.55390950    -0.73530
C82         C  0.11725328  0.28258886  0.55230374     0.97180
C83         C  0.18932746  0.31820606  0.67955435     0.93580
Al84       Al  0.12192447  0.31699942  0.68239929     1.55560
O85         O  0.16972385  0.32208715  0.56485828    -0.78150
C86         C  0.05935107  0.31946915  0.64858237     0.97750
C87         C  0.13469200  0.25586837  0.66868830     0.92630
O88         O  0.15847917  0.26439056  0.65014797    -0.83470
O89         O  0.85653267  0.15075048  0.38189183    -0.82930
C90         C  0.87683460  0.25500502  0.29168847     0.96420
O91         O  0.89114139  0.24837198  0.32346404    -0.72050
O92         O  0.84970922  0.23817751  0.37716779    -0.75640
Al93       Al  0.88429708  0.21637136  0.36075838     1.48980
C94         C  0.82842843  0.22675887  0.39716894     0.91670
O95         O  0.80220058  0.19288404  0.31276794    -0.81860
O96         O  0.87866135  0.15092465  0.27816794    -0.75420
Al97       Al  0.83086630  0.17284041  0.34657622     1.90120
O98         O  0.82947426  0.18773665  0.25811939    -0.74490
O99         O  0.91563082  0.19816147  0.28267470    -0.74340
O100        O  0.86431367  0.23485636  0.27063010    -0.80000
O101        O  0.92098629  0.19682179  0.34759949    -0.78200
O102        O  0.86225083  0.19400691  0.32792686    -1.14340
O103        O  0.88221207  0.18931757  0.40553413    -0.73530
C104        C  0.87323975  0.16243564  0.40869503     0.97180
C105        C  0.80386866  0.19259401  0.27507689     0.93580
Al106      Al  0.87134483  0.19294169  0.27624686     1.55560
O107        O  0.81966128  0.20032028  0.38927300    -0.78150
C108        C  0.93268221  0.19585423  0.31333041     0.97750
C109        C  0.85946005  0.13190485  0.29055257     0.92630
O110        O  0.83572487  0.14022288  0.30948059    -0.83470
O111        O  0.85481723  0.39698896  0.37858062    -0.82930
C112        C  0.87348263  0.50454010  0.29784876     0.96420
O113        O  0.88781917  0.49709385  0.32937416    -0.72050
O114        O  0.84974188  0.48389845  0.38709470    -0.75640
Al115      Al  0.88361569  0.46301701  0.36383256     1.48980
C116        C  0.82713818  0.47164299  0.40382600     0.91670
O117        O  0.79999117  0.44281405  0.31599624    -0.81860
O118        O  0.87541579  0.40106437  0.27634083    -0.75420
Al119      Al  0.82894356  0.42079584  0.34699611     1.90120
O120        O  0.82600230  0.43859179  0.26039294    -0.74490
O121        O  0.91142850  0.44848174  0.28130255    -0.74340
O122        O  0.86115569  0.48514700  0.27529648    -0.80000
O123        O  0.92081853  0.44549819  0.34545332    -0.78200
O124        O  0.86025891  0.44251266  0.32966138    -1.14340
O125        O  0.88318420  0.43267624  0.40525619    -0.73530
C126        C  0.87206173  0.40639737  0.40621944     0.97180
C127        C  0.80093749  0.44354278  0.27826085     0.93580
Al128      Al  0.86793112  0.44324025  0.27747459     1.55560
O129        O  0.81836217  0.44601676  0.39224579    -0.78150
C130        C  0.93015433  0.44594335  0.30987044     0.97750
C131        C  0.85602926  0.38168221  0.28726097     0.92630
O132        O  0.83264009  0.38955754  0.30719165    -0.83470
O133        O  0.14171894  0.21980637  0.38773114    -0.82930
C134        C  0.12013924  0.12078327  0.28760828     0.96420
O135        O  0.10500714  0.12622407  0.31893119    -0.72050
O136        O  0.14938098  0.13261201  0.36983806    -0.75640
Al137      Al  0.11372139  0.15558740  0.35967373     1.48980
C138        C  0.16931546  0.14203092  0.39398884     0.91670
O139        O  0.19503982  0.18108511  0.31422280    -0.81860
O140        O  0.11894036  0.22618543  0.28451564    -0.75420
Al141      Al  0.16702437  0.19950707  0.35053437     1.90120
O142        O  0.16691398  0.18951012  0.26087356    -0.74490
O143        O  0.08140481  0.17936837  0.28518700    -0.74340
O144        O  0.13229785  0.14198417  0.26840363    -0.80000
O145        O  0.07669408  0.17613182  0.35025346    -0.78200
O146        O  0.13509503  0.18004397  0.32957254    -1.14340
O147        O  0.11706293  0.17990754  0.40841047    -0.73530
C148        C  0.12502238  0.20712808  0.41320452     0.97180
C149        C  0.19262316  0.18326128  0.27660061     0.93580
Al150      Al  0.12552196  0.18396439  0.27843399     1.55560
O151        O  0.17831784  0.16900976  0.39097575    -0.78150
C152        C  0.06499893  0.18105644  0.31639575     0.97750
C153        C  0.13827561  0.24444016  0.29914891     0.92630
O154        O  0.16201213  0.23471015  0.31724775    -0.83470
O155        O  0.13914467  0.47725440  0.37509575    -0.82930
C156        C  0.11209126  0.37220386  0.29134785     0.96420
O157        O  0.09438187  0.38264412  0.31814284    -0.72050
O158        O  0.13098925  0.39092303  0.37840961    -0.75640
Al159      Al  0.10216249  0.41612295  0.35378983     1.48980
C160        C  0.15300563  0.40026252  0.39932256     0.91670
O161        O  0.19008003  0.42670434  0.31260347    -0.81860
O162        O  0.11995514  0.47521698  0.26909170    -0.75420
Al163      Al  0.16240490  0.45093460  0.34314110     1.90120
O164        O  0.16581790  0.43372118  0.25605833    -0.74490
O165        O  0.07829869  0.43107011  0.27095174    -0.74340
O166        O  0.12679694  0.38971265  0.26875127    -0.80000
O167        O  0.07022149  0.43986553  0.33415194    -0.78200
O168        O  0.12943013  0.43308646  0.32262915    -1.14340
O169        O  0.10509991  0.44506026  0.39630128    -0.73530
C170        C  0.11993104  0.46909942  0.40080896     0.97180
C171        C  0.19031616  0.42742486  0.27488835     0.93580
Al172      Al  0.12320457  0.43247628  0.27001070     1.55560
O173        O  0.16782904  0.42341314  0.38862074    -0.78150
C174        C  0.06057620  0.43919435  0.29890439     0.97750
C175        C  0.14013748  0.99310441  0.28277984     0.92630
O176        O  0.16221259  0.48315054  0.30412498    -0.83470
O177        O  0.64513743  0.10343815  0.87856869    -0.82930
C178        C  0.61806432  0.99371602  0.80469916     0.96420
O179        O  0.60529749  0.00282690  0.83670976    -0.72050
O180        O  0.64549082  0.01690222  0.89180187    -0.75640
Al181      Al  0.61215220  0.03844603  0.86902698     1.48980
C182        C  0.66882763  0.02880883  0.90742598     0.91670
O183        O  0.69475339  0.05278348  0.81467925    -0.81860
O184        O  0.61908530  0.09696139  0.77900807    -0.75420
Al185      Al  0.66816977  0.07708908  0.84685910     1.90120
O186        O  0.66596187  0.05677699  0.76117204    -0.74490
O187        O  0.58065491  0.05155080  0.78793126    -0.74340
O188        O  0.62924605  0.01222928  0.78024829    -0.80000
O189        O  0.57567938  0.05765009  0.85218153    -0.78200
O190        O  0.63500833  0.05636501  0.83258757    -1.14340
O191        O  0.61526655  0.07072008  0.90792737    -0.73530
C192        C  0.62713556  0.09671652  0.90632325     0.97180
C193        C  0.69206952  0.05231624  0.77693367     0.93580
Al194      Al  0.62457545  0.05445264  0.78112058     1.55560
O195        O  0.67919055  0.05311757  0.89347650    -0.78150
C196        C  0.56422982  0.05803120  0.81771451     0.97750
C197        C  0.63961895  0.11584344  0.78839797     0.92630
O198        O  0.66395198  0.10703471  0.80574272    -0.83470
O199        O  0.64062757  0.34716266  0.87964072    -0.82930
C200        C  0.61453255  0.24259349  0.79202910     0.96420
O201        O  0.60024865  0.24946279  0.82384102    -0.72050
O202        O  0.64000054  0.26013081  0.88060056    -0.75640
Al203      Al  0.60654017  0.28283138  0.86019635     1.48980
C204        C  0.66195682  0.27191492  0.89931817     0.91670
O205        O  0.68874734  0.30049693  0.80943917    -0.81860
O206        O  0.61297937  0.34675039  0.77850864    -0.75420
Al207      Al  0.66277415  0.32298985  0.84363504     1.90120
O208        O  0.66113289  0.30915390  0.75579105    -0.74490
O209        O  0.57563332  0.29979956  0.78078718    -0.74340
O210        O  0.62590162  0.26254388  0.76977376    -0.80000
O211        O  0.57015458  0.30230782  0.84540437    -0.78200
O212        O  0.62951172  0.30337017  0.82668076    -1.14340
O213        O  0.60902928  0.31260323  0.90202004    -0.73530
C214        C  0.62256832  0.33761471  0.90594260     0.97180
C215        C  0.68657735  0.30215625  0.77194833     0.93580
Al216      Al  0.61962299  0.30451527  0.77505215     1.55560
O217        O  0.67348602  0.29606521  0.88682066    -0.78150
C218        C  0.55868378  0.30285488  0.81104224     0.97750
C219        C  0.63307760  0.36512472  0.79086636     0.92630
O220        O  0.65813900  0.35576045  0.80607490    -0.83470
O221        O  0.35557001  0.02339163  0.87726156    -0.82930
C222        C  0.37621774  0.13231276  0.79827393     0.96420
O223        O  0.38860776  0.12504759  0.83124534    -0.72050
O224        O  0.34835586  0.11071835  0.88574686    -0.75640
Al225      Al  0.38350171  0.09060909  0.86517919     1.48980
C226        C  0.32675198  0.09715011  0.90274849     0.91670
O227        O  0.30238789  0.07025772  0.81354764    -0.81860
O228        O  0.37924030  0.02851225  0.77777795    -0.75420
Al229      Al  0.33032475  0.04759182  0.84502411     1.90120
O230        O  0.32970491  0.06644470  0.75884871    -0.74490
O231        O  0.41540669  0.07563545  0.78497849    -0.74340
O232        O  0.36505822  0.11268568  0.77506850    -0.80000
O233        O  0.42135025  0.07362755  0.84981759    -0.78200
O234        O  0.36196290  0.06985185  0.82959668    -1.14340
O235        O  0.38201864  0.05982345  0.90601059    -0.73530
C236        C  0.37179522  0.03314363  0.90578000     0.97180
C237        C  0.30411187  0.07127120  0.77584654     0.93580
Al238      Al  0.37162043  0.07071794  0.77805307     1.55560
O239        O  0.31882075  0.07142557  0.89074846    -0.78150
C240        C  0.43260570  0.07316190  0.81528611     0.97750
C241        C  0.35964369  0.50919794  0.78809438     0.92630
O242        O  0.33475461  0.01730724  0.80431381    -0.83470
O243        O  0.35061790  0.27180686  0.87759082    -0.82930
C244        C  0.37290140  0.38139618  0.80073222     0.96420
O245        O  0.38598092  0.37304847  0.83282969    -0.72050
O246        O  0.34472222  0.35941305  0.88646708    -0.75640
Al247      Al  0.37941134  0.33848531  0.86625589     1.48980
C248        C  0.32271891  0.34614714  0.90309532     0.91670
O249        O  0.29804677  0.31914885  0.81398675    -0.81860
O250        O  0.37446848  0.27830652  0.77683127    -0.75420
Al251      Al  0.32581528  0.29645438  0.84520928     1.90120
O252        O  0.32545378  0.31674446  0.75934435    -0.74490
O253        O  0.41094373  0.32472312  0.78602318    -0.74340
O254        O  0.36108847  0.36241112  0.77720273    -0.80000
O255        O  0.41638538  0.31979733  0.85067491    -0.78200
O256        O  0.35751086  0.31864174  0.83023082    -1.14340
O257        O  0.37673595  0.30787432  0.90717514    -0.73530
C258        C  0.36615770  0.28135624  0.90680816     0.97180
C259        C  0.29974147  0.32066382  0.77647233     0.93580
Al260      Al  0.36720410  0.32042420  0.77873524     1.55560
O261        O  0.31433175  0.32056641  0.89088075    -0.78150
C262        C  0.42758676  0.31910026  0.81610017     0.97750
C263        C  0.35500093  0.25870382  0.78653455     0.92630
O264        O  0.33053448  0.26627895  0.80430475    -0.83470
O265        O  0.63587196  0.15369597  0.07515357    -0.82930
C266        C  0.61497710  0.25593623  0.17055158     0.96420
O267        O  0.59919285  0.24833398  0.14042564    -0.72050
O268        O  0.64036540  0.24127605  0.08466612    -0.75640
Al269      Al  0.60696987  0.21768358  0.10131889     1.48980
C270        C  0.66033679  0.23064462  0.06147519     0.91670
O271        O  0.69203131  0.19482173  0.14225510    -0.81860
O272        O  0.61861598  0.15168879  0.18131181    -0.75420
Al273      Al  0.66230583  0.17538448  0.10971668     1.90120
O274        O  0.66725736  0.18975112  0.19884406    -0.74490
O275        O  0.57981210  0.19732740  0.18032043    -0.74340
O276        O  0.62994208  0.23634604  0.18990570    -0.80000
O277        O  0.57203257  0.19579874  0.11550006    -0.78200
O278        O  0.63126198  0.19556252  0.13162024    -1.14340
O279        O  0.60908893  0.19256493  0.05452623    -0.73530
C280        C  0.61925499  0.16628703  0.04918299     0.97180
C281        C  0.69212290  0.19370686  0.17993621     0.93580
Al282      Al  0.62448136  0.19391337  0.18379882     1.55560
O283        O  0.67084563  0.20445192  0.06768862    -0.78150
C284        C  0.56213728  0.19307772  0.15058095     0.97750
C285        C  0.63725105  0.13293779  0.16639593     0.92630
O286        O  0.65963391  0.14161540  0.14531139    -0.83470
O287        O  0.63963562  0.39661840  0.07999836    -0.82930
C288        C  0.61685487  0.50580606  0.15787268     0.96420
O289        O  0.60323768  0.49754529  0.12610831    -0.72050
O290        O  0.64423409  0.48369624  0.07210838    -0.75640
Al291      Al  0.60991519  0.46283386  0.09241517     1.48980
C292        C  0.66719096  0.47128720  0.05609062     0.91670
O293        O  0.69183290  0.44282618  0.14625032    -0.81860
O294        O  0.61479293  0.40277240  0.18148300    -0.75420
Al295      Al  0.66406692  0.42080579  0.11326497     1.90120
O296        O  0.66310022  0.44048481  0.19964237    -0.74490
O297        O  0.57824428  0.44970669  0.17230859    -0.74340
O298        O  0.62872174  0.48681925  0.18130190    -0.80000
O299        O  0.57316832  0.44422022  0.10781072    -0.78200
O300        O  0.63205017  0.44296573  0.12826170    -1.14340
O301        O  0.61240033  0.43227933  0.05142443    -0.73530
C302        C  0.62275282  0.40566402  0.05179895     0.97180
C303        C  0.68919199  0.44378795  0.18388065     0.93580
Al304      Al  0.62201135  0.44486005  0.17967534     1.55560
O305        O  0.67615297  0.44576568  0.06817643    -0.78150
C306        C  0.56164027  0.44415816  0.14218572     0.97750
C307        C  0.63449985  0.38296773  0.17233591     0.92630
O308        O  0.65856148  0.39003738  0.15332226    -0.83470
O309        O  0.35428951  0.22186080  0.07755930    -0.82930
C310        C  0.37527875  0.11551633  0.16142462     0.96420
O311        O  0.38966984  0.12255108  0.12997294    -0.72050
O312        O  0.34986255  0.13457693  0.07377814    -0.75640
Al313      Al  0.38398255  0.15595246  0.09436599     1.48980
C314        C  0.32732345  0.14669055  0.05644022     0.91670
O315        O  0.30165482  0.17719364  0.14349353    -0.81860
O316        O  0.37770834  0.21950269  0.17968432    -0.75420
Al317      Al  0.32957561  0.19856671  0.11099942     1.90120
O318        O  0.32878068  0.18248638  0.19838320    -0.74490
O319        O  0.41423822  0.17182118  0.17488805    -0.74340
O320        O  0.36359575  0.13537517  0.18384163    -0.80000
O321        O  0.42101484  0.17431177  0.11028985    -0.78200
O322        O  0.36143085  0.17718132  0.12831327    -1.14340
O323        O  0.38211692  0.18518999  0.05184791    -0.73530
C324        C  0.37109059  0.21154387  0.05018060     0.97180
C325        C  0.30328213  0.17767353  0.18120117     0.93580
Al326      Al  0.37044872  0.17728112  0.18021663     1.55560
O327        O  0.31844037  0.17257630  0.06697189    -0.78150
C328        C  0.43183336  0.17418483  0.14517988     0.97750
C329        C  0.35781822  0.23858291  0.16854008     0.92630
O330        O  0.33405275  0.23026741  0.14960202    -0.83470
O331        O  0.35201505  0.47231759  0.07695441    -0.82930
C332        C  0.37596575  0.36541137  0.15944770     0.96420
O333        O  0.38949350  0.37286970  0.12748737    -0.72050
O334        O  0.34802789  0.38450898  0.07300818    -0.75640
Al335      Al  0.38218531  0.40641079  0.09214297     1.48980
C336        C  0.32523826  0.39650086  0.05611586     0.91670
O337        O  0.30103648  0.42647488  0.14305041    -0.81860
O338        O  0.37686597  0.46872422  0.17892707    -0.75420
Al339      Al  0.32809191  0.44846443  0.11073465     1.90120
O340        O  0.32778231  0.43134177  0.19813671    -0.74490
O341        O  0.41385771  0.42163370  0.17168389    -0.74340
O342        O  0.36344346  0.38483198  0.18172394    -0.80000
O343        O  0.41883937  0.42558395  0.10688645    -0.78200
O344        O  0.36012715  0.42713275  0.12702428    -1.14340
O345        O  0.37888018  0.43581860  0.04945807    -0.73530
C346        C  0.36779216  0.46222297  0.04845497     0.97180
C347        C  0.30219185  0.42700033  0.18060817     0.93580
Al348      Al  0.36978820  0.42667368  0.17875107     1.55560
O349        O  0.31649474  0.42247801  0.06662926    -0.78150
C350        C  0.43066851  0.42471096  0.14117413     0.97750
C351        C  0.35746119  0.48814370  0.16766839     0.92630
O352        O  0.33302636  0.48009752  0.14984485    -0.83470
C353        C  0.34324671  0.32228728  0.17607197    -0.10290
C354        C  0.37285068  0.33341397  0.16917524     0.05900
C355        C  0.39795197  0.31338076  0.16787565    -0.04060
C356        C  0.39286929  0.28243379  0.17112295    -0.08510
C357        C  0.36287492  0.27106357  0.17481185     0.05020
C358        C  0.33799184  0.29141976  0.17851904    -0.03530
Br359      Br  0.29619344  0.27867534  0.18602194    -0.03230
H360        H  0.32381902  0.33761784  0.17736703     0.08930
H361        H  0.41223830  0.26716921  0.16833960     0.06950
Br362      Br  0.43938818  0.32726338  0.16146539    -0.03660
C363        C  0.39669291  0.06417611  0.16782710    -0.10290
C364        C  0.37127411  0.08348930  0.17060530     0.05900
C365        C  0.34176370  0.07128538  0.17639747    -0.04060
C366        C  0.33803721  0.04011760  0.17787676    -0.08510
C367        C  0.36331053  0.02059924  0.17360114     0.05020
C368        C  0.39304616  0.03299407  0.16939281    -0.03530
Br369      Br  0.42922213  0.00905545  0.16055235    -0.03230
H370        H  0.41937997  0.07339403  0.16266806     0.08930
H371        H  0.31502612  0.03106107  0.18054647     0.06950
Br372      Br  0.30528427  0.09577316  0.17711676    -0.03660
C373        C  0.51528985  0.41851107  0.11707549    -0.10290
C374        C  0.52853370  0.43723091  0.14618030     0.05900
C375        C  0.50958003  0.44940706  0.17648434    -0.04060
C376        C  0.47778613  0.44389383  0.17572242    -0.08510
C377        C  0.46446177  0.42681760  0.14483948     0.05020
C378        C  0.48377388  0.41317576  0.11615878    -0.03530
Br379      Br  0.46903360  0.38607569  0.07553494    -0.03230
H380        H  0.52958781  0.40803804  0.09448069     0.08930
H381        H  0.46327491  0.45410959  0.19828691     0.06950
Br382      Br  0.52501210  0.47555626  0.21762985    -0.03660
C383        C  0.64638398  0.29972632  0.19204139    -0.10290
C384        C  0.61756175  0.28832778  0.18043300     0.05900
C385        C  0.59340361  0.30878143  0.17217018    -0.04060
C386        C  0.59895288  0.33972100  0.17296593    -0.08510
C387        C  0.62846070  0.35095995  0.18095752     0.05020
C388        C  0.65207095  0.33073225  0.19194304    -0.03530
Br389      Br  0.69256283  0.34421229  0.20634611    -0.03230
H390        H  0.66518592  0.28443287  0.19860887     0.08930
H391        H  0.58052483  0.35499133  0.16469640     0.06950
Br392      Br  0.55255945  0.29605914  0.15808965    -0.03660
C393        C  0.60177950  0.08957298  0.16493171    -0.10290
C394        C  0.63176209  0.10044201  0.17101025     0.05900
C395        C  0.65606580  0.07979431  0.17666086    -0.04060
C396        C  0.65024592  0.04891182  0.17476404    -0.08510
C397        C  0.62061731  0.03812628  0.16615828     0.05020
C398        C  0.59613584  0.05869710  0.16194197    -0.03530
Br399      Br  0.55471657  0.04577711  0.15190562    -0.03230
H400        H  0.58289645  0.10519077  0.16038305     0.08930
H401        H  0.66926337  0.03326690  0.17805579     0.06950
Br402      Br  0.69757953  0.09249223  0.18675965    -0.03660
C403        C  0.47778058  0.19584673  0.17954260    -0.10290
C404        C  0.46540435  0.17610907  0.15085480     0.05900
C405        C  0.48548472  0.15919679  0.12654316    -0.04060
C406        C  0.51708838  0.16394892  0.12897241    -0.08510
C407        C  0.52946299  0.18519141  0.15551197     0.05020
C408        C  0.50966994  0.20052491  0.18202805    -0.03530
Br409      Br  0.52451931  0.22987820  0.21945901    -0.03230
H410        H  0.46255186  0.20867934  0.19873734     0.08930
H411        H  0.53215206  0.15140680  0.10927463     0.06950
Br412      Br  0.47130386  0.12876308  0.09001995    -0.03660
C413        C  0.30660407  0.40071499  0.98642269    -0.10290
C414        C  0.31262622  0.38219117  0.01953327     0.05900
C415        C  0.31396179  0.35078745  0.01361971    -0.04060
C416        C  0.31278789  0.33898645  0.97479259    -0.08510
C417        C  0.31118772  0.35803591  0.94144729     0.05020
C418        C  0.30641934  0.38897203  0.94755039    -0.03530
Br419      Br  0.30239311  0.41629611  0.90359606    -0.03230
H420        H  0.30542892  0.42479684  0.99018677     0.08930
H421        H  0.31654766  0.31511005  0.97060034     0.06950
Br422      Br  0.32029527  0.32317954  0.05695255    -0.03660
C423        C  0.39702649  0.25917727  0.96281712    -0.10290
C424        C  0.36878480  0.26235310  0.94246545     0.05900
C425        C  0.34223102  0.24858638  0.95807469    -0.04060
C426        C  0.34419973  0.23244324  0.99326946    -0.08510
C427        C  0.37225198  0.22855396  0.01301147     0.05020
C428        C  0.39899441  0.24183313  0.99776592    -0.03530
Br429      Br  0.43770508  0.23817855  0.02495607    -0.03230
H430        H  0.41742261  0.27013367  0.95158741     0.08930
H431        H  0.32337833  0.22316006  0.00580420     0.06950
Br432      Br  0.30174187  0.25251664  0.93527065    -0.03660
C433        C  0.30942049  0.15136415  0.98640391    -0.10290
C434        C  0.31512882  0.13263956  0.01943599     0.05900
C435        C  0.31649151  0.10129760  0.01321214    -0.04060
C436        C  0.31583312  0.08976074  0.97424976    -0.08510
C437        C  0.31498167  0.10899502  0.94106325     0.05020
C438        C  0.31009143  0.13989583  0.94736788    -0.03530
Br439      Br  0.30672322  0.16745297  0.90358939    -0.03230
H440        H  0.30763672  0.17538644  0.99050305     0.08930
H441        H  0.31929195  0.06590843  0.96994214     0.06950
Br442      Br  0.32192675  0.07341246  0.05640874    -0.03660
C443        C  0.34471876  0.00784745  0.95892429    -0.10290
C444        C  0.37308265  0.01486603  0.94200226     0.05900
C445        C  0.40040898  0.00474513  0.96025963    -0.04060
C446        C  0.39871020  0.48684967  0.99475920    -0.08510
C447        C  0.37003794  0.48052888  0.01214780     0.05020
C448        C  0.34294154  0.49181765  0.99420042    -0.03530
Br449      Br  0.30234865  0.48634228  0.01546135    -0.03230
H450        H  0.32358071  0.01558024  0.94494875     0.08930
H451        H  0.41966337  0.47847722  0.00846524     0.06950
Br452      Br  0.43990190  0.01421197  0.93855172    -0.03660
C453        C  0.34334281  0.45804055  0.76814551    -0.10290
C454        C  0.36606118  0.47686649  0.78420208     0.05900
C455        C  0.39196214  0.46402015  0.80304730    -0.04060
C456        C  0.39442350  0.43281252  0.80632235    -0.08510
C457        C  0.37125323  0.41384816  0.79142162     0.05020
C458        C  0.34569638  0.42677231  0.77142162    -0.03530
Br459      Br  0.31143293  0.40365790  0.75197712    -0.03230
H460        H  0.32294427  0.46779703  0.75460526     0.08930
H461        H  0.41400042  0.42337980  0.82211166     0.06950
Br462      Br  0.42245524  0.48795301  0.82981780    -0.03660
C463        C  0.39115788  0.21592256  0.79157873    -0.10290
C464        C  0.36181502  0.22651864  0.78075724     0.05900
C465        C  0.33862372  0.20568807  0.77085005    -0.04060
C466        C  0.34454383  0.17487431  0.77410755    -0.08510
C467        C  0.37311837  0.16437533  0.78809843     0.05020
C468        C  0.39686265  0.18513197  0.79573602    -0.03530
Br469      Br  0.43728834  0.17270121  0.81238583    -0.03230
H470        H  0.40919737  0.23169825  0.79929633     0.08930
H471        H  0.32615914  0.15912090  0.76785376     0.06950
Br472      Br  0.29836616  0.21811161  0.75352103    -0.03660
C473        C  0.64466152  0.27448843  0.96823856    -0.10290
C474        C  0.66651878  0.26329855  0.94157425     0.05900
C475        C  0.69014145  0.24475394  0.95637345    -0.04060
C476        C  0.68953328  0.23568509  0.99680391    -0.08510
C477        C  0.66635977  0.24621402  0.02307477     0.05020
C478        C  0.64484975  0.26746803  0.00835375    -0.03530
Br479      Br  0.61280494  0.28713951  0.03870430    -0.03230
H480        H  0.62637193  0.28893305  0.95805012     0.08930
H481        H  0.70649075  0.21959563  0.00728778     0.06950
Br482      Br  0.72247355  0.23083519  0.92229433    -0.03660
C483        C  0.59353064  0.36790018  0.95653787    -0.10290
C484        C  0.62089852  0.35395019  0.94402607     0.05900
C485        C  0.64721721  0.35544544  0.96870297    -0.04060
C486        C  0.64576344  0.37010730  0.00517896    -0.08510
C487        C  0.61941993  0.38598111  0.01663129     0.05020
C488        C  0.59286652  0.38464729  0.99228350    -0.03530
Br489      Br  0.55532479  0.40440438  0.00704480    -0.03230
H490        H  0.57309990  0.36659673  0.93796177     0.08930
H491        H  0.66640697  0.37094869  0.02346341     0.06950
Br492      Br  0.68680909  0.33964853  0.95437765    -0.03660
C493        C  0.47797785  0.32862010  0.78323878    -0.10290
C494        C  0.46061675  0.31246423  0.81121880     0.05900
C495        C  0.47552064  0.29123100  0.83579146    -0.04060
C496        C  0.50737404  0.28800532  0.83403812    -0.08510
C497        C  0.52498193  0.30518614  0.80761657     0.05020
C498        C  0.51003941  0.32511940  0.78126231    -0.03530
Br499      Br  0.53242117  0.34983389  0.74473917    -0.03230
H500        H  0.46676239  0.34491509  0.76405431     0.08930
H501        H  0.51856735  0.27204104  0.85376586     0.06950
Br502      Br  0.45363047  0.26514931  0.87132891    -0.03660
C503        C  0.68550004  0.48438533  0.94742781    -0.10290
C504        C  0.68099382  0.01558735  0.94513476     0.05900
C505        C  0.68054556  0.03223179  0.98118770    -0.04060
C506        C  0.67966125  0.01737751  0.01800108    -0.08510
C507        C  0.68055116  0.48590616  0.02012302     0.05020
C508        C  0.68638025  0.46964670  0.98450855    -0.03530
Br509      Br  0.69286275  0.42714297  0.98377093    -0.03230
H510        H  0.68654252  0.47118682  0.92017273     0.08930
H511        H  0.67593571  0.03044688  0.04497734     0.06950
Br512      Br  0.67698190  0.07499325  0.98264416    -0.03660
C513        C  0.64196801  0.15676013  0.98423581    -0.10290
C514        C  0.61704800  0.15248030  0.00967368     0.05900
C515        C  0.59300776  0.13333747  0.99821370    -0.04060
C516        C  0.59573847  0.11630597  0.96307542    -0.08510
C517        C  0.62197769  0.11881196  0.93877825     0.05020
C518        C  0.64463837  0.14051794  0.94885009    -0.03530
Br519      Br  0.68210446  0.14705813  0.91960051    -0.03230
H520        H  0.66033769  0.17188888  0.99298462     0.08930
H521        H  0.57781822  0.10040858  0.95543304     0.06950
Br522      Br  0.55681883  0.12938404  0.03011979    -0.03660
C523        C  0.59865429  0.44151653  0.81351406    -0.10290
C524        C  0.62044887  0.46090519  0.79659600     0.05900
C525        C  0.64548988  0.44816669  0.77528581    -0.04060
C526        C  0.64857882  0.41687699  0.77236193    -0.08510
C527        C  0.62698611  0.39772979  0.78972393     0.05020
C528        C  0.60171129  0.41026618  0.81022601    -0.03530
Br529      Br  0.57253746  0.38575802  0.83800060    -0.03230
H530        H  0.57952520  0.45067558  0.83035488     0.08930
H531        H  0.66841775  0.40739532  0.75729553     0.06950
Br532      Br  0.67799513  0.47162926  0.75248632    -0.03660
C533        C  0.60399581  0.15898540  0.77623835    -0.10290
C534        C  0.63440273  0.14854101  0.78176087     0.05900
C535        C  0.65828783  0.17002244  0.78569414    -0.04060
C536        C  0.65117947  0.20069195  0.78607359    -0.08510
C537        C  0.62068789  0.21072898  0.78334988     0.05020
C538        C  0.59703200  0.18976526  0.77746294    -0.03530
Br539      Br  0.55499770  0.20231042  0.77157035    -0.03230
H540        H  0.58525160  0.14316101  0.77307709     0.08930
H541        H  0.66950272  0.21683324  0.79070990     0.06950
Br542      Br  0.70107029  0.15979056  0.79212032    -0.03660
C543        C  0.51336952  0.04905323  0.78474768    -0.10290
C544        C  0.53110791  0.06499489  0.81290263     0.05900
C545        C  0.51636895  0.08593853  0.83821699    -0.04060
C546        C  0.48435998  0.08850176  0.83768539    -0.08510
C547        C  0.46640275  0.07127371  0.81132121     0.05020
C548        C  0.48121301  0.05222237  0.78354684    -0.03530
Br549      Br  0.45874674  0.52846443  0.74546136    -0.03230
H550        H  0.52439633  0.03317701  0.76472223     0.08930
H551        H  0.47336156  0.10412645  0.85811348     0.06950
Br552      Br  0.53874075  0.11266467  0.87291716    -0.03660
C553        C  0.21773631  0.42854243  0.21022694    -0.10290
C554        C  0.21924300  0.42333166  0.25160236     0.05900
C555        C  0.24834148  0.41694746  0.26886007    -0.04060
C556        C  0.27489059  0.41746310  0.24503905    -0.08510
C557        C  0.27331003  0.42406329  0.20397293     0.05020
C558        C  0.24401040  0.42920451  0.18656995    -0.03530
Br559      Br  0.23719233  0.43977894  0.13146761    -0.03230
H560        H  0.19587243  0.43338687  0.19593214     0.08930
H561        H  0.29700606  0.41303772  0.25892575     0.06950
Br562      Br  0.25398711  0.40749385  0.32437065    -0.03660
C563        C  0.24786635  0.16948447  0.26821212    -0.10290
C564        C  0.22014401  0.17940046  0.25078730     0.05900
C565        C  0.21979700  0.18595596  0.20929794    -0.04060
C566        C  0.24689446  0.18379707  0.18722183    -0.08510
C567        C  0.27481545  0.17535090  0.20512589     0.05020
C568        C  0.27496045  0.16731802  0.24593250    -0.03530
Br569      Br  0.31091253  0.15242269  0.27311341    -0.03230
H570        H  0.24865908  0.16357873  0.29957660     0.08930
H571        H  0.24626842  0.18997194  0.15593252     0.06950
Br572      Br  0.18413977  0.19936298  0.17994331    -0.03660
C573        C  0.11734084  0.28923500  0.26217366    -0.10290
C574        C  0.13293539  0.27741630  0.29575560     0.05900
C575        C  0.14186105  0.29747642  0.32659330    -0.04060
C576        C  0.13444956  0.32787499  0.32391879    -0.08510
C577        C  0.11872721  0.33959642  0.29089646     0.05020
C578        C  0.11073022  0.32019349  0.25928545    -0.03530
Br579      Br  0.09028925  0.33499265  0.21248273    -0.03230
H580        H  0.11042416  0.27440346  0.23803162     0.08930
H581        H  0.14147422  0.34254168  0.34800029     0.06950
Br582      Br  0.16302389  0.28574376  0.37459484    -0.03660
C583        C  0.15574833  0.07764886  0.28136015    -0.10290
C584        C  0.12585320  0.08907493  0.27659207     0.05900
C585        C  0.10159666  0.06899306  0.26912858    -0.04060
C586        C  0.10722033  0.03792615  0.26831134    -0.08510
C587        C  0.13681264  0.02613107  0.27603086     0.05020
C588        C  0.16143620  0.04658756  0.28150113    -0.03530
Br589      Br  0.20326347  0.03410221  0.29062440    -0.03230
H590        H  0.17454472  0.09294756  0.28759432     0.08930
H591        H  0.08790885  0.02292348  0.26395052     0.06950
Br592      Br  0.06026676  0.08312317  0.26129761    -0.03660
C593        C  0.74488069  0.45525350  0.19193227    -0.10290
C594        C  0.71689024  0.44717436  0.20969100     0.05900
C595        C  0.71662428  0.44097019  0.25126354    -0.04060
C596        C  0.74408190  0.44141321  0.27308972    -0.08510
C597        C  0.77225889  0.44778732  0.25478993     0.05020
C598        C  0.77231717  0.45577415  0.21390289    -0.03530
Br599      Br  0.80860616  0.46818488  0.18585562    -0.03230
H600        H  0.74561155  0.46082563  0.16046320     0.08930
H601        H  0.74346335  0.43543502  0.30443610     0.06950
Br602      Br  0.68055693  0.42982123  0.28081708    -0.03660
C603        C  0.98141408  0.46809267  0.32005568    -0.10290
C604        C  0.96338840  0.44587387  0.30181328     0.05900
C605        C  0.97741572  0.42488889  0.27589431    -0.04060
C606        C  0.00952366  0.42456601  0.27185672    -0.08510
C607        C  0.02769207  0.44550577  0.29256287     0.05020
C608        C  0.01323795  0.46843343  0.31489665    -0.03530
Br609      Br  0.03616419  0.50070778  0.33884010    -0.03230
H610        H  0.97066820  0.48524049  0.33845912     0.08930
H611        H  0.02037321  0.40677551  0.25469898     0.06950
Br612      Br  0.95416301  0.39477252  0.24816535    -0.03660
C613        C  0.77547616  0.18268887  0.21183949    -0.10290
C614        C  0.77563348  0.19576245  0.25015917     0.05900
C615        C  0.74851306  0.21003379  0.26390598    -0.04060
C616        C  0.72181846  0.20967750  0.24019453    -0.08510
C617        C  0.72151876  0.19578072  0.20240804     0.05020
C618        C  0.74892922  0.18248900  0.18809596    -0.03530
Br619      Br  0.75130555  0.16114526  0.13814677    -0.03230
H620        H  0.79589286  0.17145522  0.20069010     0.08930
H621        H  0.70109588  0.22033109  0.25140354     0.06950
Br622      Br  0.74647672  0.23136037  0.31386754    -0.03660
C623        C  0.84310117  0.29789138  0.27453868    -0.10290
C624        C  0.87296012  0.28691716  0.28133742     0.05900
C625        C  0.89754067  0.30731089  0.28429069    -0.04060
C626        C  0.89171639  0.33822760  0.28311247    -0.08510
C627        C  0.86154487  0.34936098  0.27950421     0.05020
C628        C  0.83716120  0.32882872  0.27394635    -0.03530
Br629      Br  0.79522419  0.34153863  0.26655786    -0.03230
H630        H  0.82400248  0.28236538  0.27225678     0.08930
H631        H  0.91065872  0.35357071  0.28773280     0.06950
Br632      Br  0.93932434  0.29399938  0.29092920    -0.03660
C633        C  0.83875672  0.08091041  0.27943612    -0.10290
C634        C  0.86455492  0.09947600  0.28449997     0.05900
C635        C  0.89383288  0.08620611  0.28991567    -0.04060
C636        C  0.89653115  0.05495066  0.29186801    -0.08510
C637        C  0.87052808  0.03657470  0.28849024     0.05020
C638        C  0.84148217  0.04970053  0.28151783    -0.03530
Br639      Br  0.80426242  0.02654945  0.28021297    -0.03230
H640        H  0.81607812  0.09079555  0.27589997     0.08930
H641        H  0.91886036  0.04496929  0.29787757     0.06950
Br642      Br  0.93033062  0.10921798  0.30017851    -0.03660
C643        C  0.98373187  0.20362207  0.34407106    -0.10290
C644        C  0.96672511  0.19371724  0.31072737     0.05900
C645        C  0.98278637  0.18203495  0.27744351    -0.04060
C646        C  0.01496718  0.17896499  0.27921679    -0.08510
C647        C  0.03161627  0.18757570  0.31355497     0.05020
C648        C  0.01561868  0.20091816  0.34571071    -0.03530
Br649      Br  0.03557342  0.21712757  0.39248770    -0.03230
H650        H  0.97212764  0.21373055  0.36941743     0.08930
H651        H  0.02689897  0.16890651  0.25410883     0.06950
Br652      Br  0.96239686  0.16849994  0.22971538    -0.03660
C653        C  0.21581764  0.32780855  0.74420918    -0.10290
C654        C  0.21811788  0.32307854  0.70276143     0.05900
C655        C  0.24777440  0.32131212  0.68556999    -0.04060
C656        C  0.27384238  0.32213726  0.71014896    -0.08510
C657        C  0.27144981  0.32474618  0.75192149     0.05020
C658        C  0.24188309  0.32880221  0.76876293    -0.03530
Br659      Br  0.23452192  0.33538545  0.82478779    -0.03230
H660        H  0.19341405  0.33013519  0.75799559     0.08930
H661        H  0.29620097  0.31957442  0.69632727     0.06950
Br662      Br  0.25520308  0.31600273  0.62935788    -0.03660
C663        C  0.13395562  0.37243476  0.50233690    -0.10290
C664        C  0.16194787  0.36189490  0.51724976     0.05900
C665        C  0.18824797  0.36368263  0.49279483    -0.04060
C666        C  0.18580210  0.37686221  0.45433310    -0.08510
C667        C  0.15701283  0.38679903  0.43955360     0.05020
C668        C  0.13096085  0.38397970  0.46450672    -0.03530
Br669      Br  0.08931478  0.39509992  0.45195904    -0.03230
H670        H  0.11325028  0.37089587  0.52005371     0.08930
H671        H  0.20607271  0.37872960  0.43580887     0.06950
Br672      Br  0.22741214  0.34945274  0.51116747    -0.03660
C673        C  0.12073023  0.23220494  0.52114587    -0.10290
C674        C  0.11115911  0.26231297  0.51751606     0.05900
C675        C  0.10113826  0.27234489  0.47951558    -0.04060
C676        C  0.10418848  0.25338839  0.44598401    -0.08510
C677        C  0.11644426  0.22423283  0.44958739     0.05020
C678        C  0.12387867  0.21358360  0.48786692    -0.03530
Br679      Br  0.14324826  0.17578767  0.49655779    -0.03230
H680        H  0.12806199  0.22348135  0.54986117     0.08930
H681        H  0.09795848  0.26182503  0.41670020     0.06950
Br682      Br  0.08434920  0.31161033  0.47057521    -0.03660
C683        C  0.24763429  0.07821100  0.68851245    -0.10290
C684        C  0.21924219  0.07529024  0.70813097     0.05900
C685        C  0.21919057  0.07500056  0.75048066    -0.04060
C686        C  0.24704078  0.07503722  0.77155467    -0.08510
C687        C  0.27551864  0.07570995  0.75180207     0.05020
C688        C  0.27549178  0.07866065  0.70968466    -0.03530
Br689      Br  0.31216345  0.08344889  0.67845557    -0.03230
H690        H  0.24838400  0.07938138  0.65620127     0.08930
H691        H  0.24626431  0.07362239  0.80384778     0.06950
Br692      Br  0.18252155  0.07413054  0.78246549    -0.03660
C693        C  0.19600603  0.11485796  0.49745268    -0.10290
C694        C  0.16761066  0.10321316  0.51064270     0.05900
C695        C  0.14341355  0.10062697  0.48224776    -0.04060
C696        C  0.14822002  0.10791262  0.44281468    -0.08510
C697        C  0.17416693  0.12389881  0.43087187     0.05020
C698        C  0.19889287  0.12659354  0.45822319    -0.03530
Br699      Br  0.23638569  0.14581673  0.44320680    -0.03230
H700        H  0.21503512  0.11682524  0.51828306     0.08930
H701        H  0.12887037  0.10509454  0.42265014     0.06950
Br702      Br  0.10059441  0.09420373  0.49282661    -0.03660
C703        C  0.14792158  0.49312497  0.45537810    -0.10290
C704        C  0.11931341  0.48503599  0.43932914     0.05900
C705        C  0.09253185  0.48944899  0.46228668    -0.04060
C706        C  0.09482043  0.00303155  0.50011398    -0.08510
C707        C  0.12368205  0.01067746  0.51612731     0.05020
C708        C  0.15040049  0.00536557  0.49342134    -0.03530
Br709      Br  0.19115052  0.01549874  0.51116771    -0.03230
H710        H  0.16882156  0.48912855  0.43854844     0.08930
H711        H  0.07412975  0.00754390  0.51710299     0.06950
Br712      Br  0.05255931  0.47826795  0.44313753    -0.03660
C713        C  0.15052001  0.42164967  0.68124393    -0.10290
C714        C  0.12037740  0.41129273  0.67506398     0.05900
C715        C  0.09617873  0.43234026  0.67269758    -0.04060
C716        C  0.10254211  0.46315304  0.67460878    -0.08510
C717        C  0.13296144  0.47368386  0.67789560     0.05020
C718        C  0.15704121  0.45249111  0.68224373    -0.03530
Br719      Br  0.19926379  0.46407092  0.68922801    -0.03230
H720        H  0.16935866  0.40567090  0.68309444     0.08930
H721        H  0.08367292  0.47895750  0.67134580     0.06950
Br722      Br  0.05410126  0.42011401  0.66644243    -0.03660
C723        C  0.14591807  0.17213413  0.68375097    -0.10290
C724        C  0.11825430  0.16087975  0.66769176     0.05900
C725        C  0.09504109  0.18139704  0.65609924    -0.04060
C726        C  0.10035195  0.21232878  0.65899822    -0.08510
C727        C  0.12863237  0.22345423  0.67284407     0.05020
C728        C  0.15136366  0.20311632  0.68594186    -0.03530
Br729      Br  0.19017584  0.21660054  0.70676721    -0.03230
H730        H  0.16401701  0.15677382  0.69286853     0.08930
H731        H  0.08280979  0.22778530  0.64848384     0.06950
Br732      Br  0.05563408  0.16875663  0.63615746    -0.03660
C733        C  0.76701936  0.28202360  0.73628326    -0.10290
C734        C  0.76894140  0.29931417  0.70146028     0.05900
C735        C  0.74308943  0.31632445  0.68927506    -0.04060
C736        C  0.71621737  0.31587064  0.71191614    -0.08510
C737        C  0.71432933  0.29879518  0.74694922     0.05020
C738        C  0.73982614  0.28105416  0.75853611    -0.03530
Br739      Br  0.73851230  0.25403242  0.80310507    -0.03230
H740        H  0.78674051  0.26925893  0.74631424     0.08930
H741        H  0.69708253  0.33002378  0.70288765     0.06950
Br742      Br  0.74376736  0.34333202  0.64469920    -0.03660
C743        C  0.80443416  0.22551583  0.46490132    -0.10290
C744        C  0.81851811  0.24229579  0.43423344     0.05900
C745        C  0.83058925  0.27090280  0.44380741    -0.04060
C746        C  0.83293082  0.27959369  0.48352587    -0.08510
C747        C  0.82133291  0.26194442  0.51435596     0.05020
C748        C  0.80569638  0.23531206  0.50492974    -0.03530
Br749      Br  0.78792297  0.21104773  0.54583517    -0.03230
H750        H  0.79477430  0.20362614  0.45840425     0.08930
H751        H  0.84549442  0.29978357  0.49049294     0.06950
Br752      Br  0.84670623  0.29876147  0.40521137    -0.03660
C753        C  0.89804396  0.36967730  0.50369781    -0.10290
C754        C  0.86985354  0.35721724  0.51559134     0.05900
C755        C  0.84384497  0.36043526  0.49081354    -0.04060
C756        C  0.84676619  0.37378296  0.45381939    -0.08510
C757        C  0.87407563  0.38790380  0.44252054     0.05020
C758        C  0.89998555  0.38612926  0.46793353    -0.03530
Br759      Br  0.93825165  0.40475378  0.45454474    -0.03230
H760        H  0.91817368  0.36731085  0.52263754     0.08930
H761        H  0.82651173  0.37502488  0.43486926     0.06950
Br762      Br  0.80307492  0.34798404  0.50544237    -0.03660
C763        C  0.97942873  0.29192169  0.67549611    -0.10290
C764        C  0.96106280  0.31315227  0.65545896     0.05900
C765        C  0.97520728  0.33777526  0.63683775    -0.04060
C766        C  0.00728613  0.33985488  0.63623527    -0.08510
C767        C  0.02577723  0.31786278  0.65444975     0.05020
C768        C  0.01165897  0.29411021  0.67507360    -0.03530
Br769      Br  0.03534650  0.26264835  0.69940716    -0.03230
H770        H  0.96877804  0.27269627  0.68951217     0.08930
H771        H  0.01790580  0.35849359  0.62083284     0.06950
Br772      Br  0.95152513  0.36915231  0.61201458    -0.03660
C773        C  0.74587448  0.05319340  0.68665974    -0.10290
C774        C  0.77489775  0.05141209  0.70512750     0.05900
C775        C  0.77604698  0.04622830  0.74692883    -0.04060
C776        C  0.74880666  0.04536144  0.76916773    -0.08510
C777        C  0.71982752  0.04904302  0.75101345     0.05020
C778        C  0.71862664  0.05187047  0.70876352    -0.03530
Br779      Br  0.68115162  0.05481431  0.67817147    -0.03230
H780        H  0.74421091  0.05641051  0.65464763     0.08930
H781        H  0.75047200  0.04237704  0.80122064     0.06950
Br782      Br  0.81354241  0.03975804  0.77643801    -0.03660
C783        C  0.80784276  0.48380262  0.51237371    -0.10290
C784        C  0.81171395  0.01493480  0.51564415     0.05900
C785        C  0.81095162  0.03218137  0.48023128    -0.04060
C786        C  0.81354810  0.01777783  0.44296071    -0.08510
C787        C  0.81371256  0.48627794  0.44001227     0.05020
C788        C  0.80716679  0.46967470  0.47489090    -0.03530
Br789      Br  0.79857003  0.42772843  0.47423009    -0.03230
H790        H  0.80679228  0.47023925  0.53916832     0.08930
H791        H  0.81686819  0.03122100  0.41640974     0.06950
Br792      Br  0.80883934  0.07525694  0.48068044    -0.03660
C793        C  0.88455373  0.11364949  0.44123416    -0.10290
C794        C  0.88054994  0.14482305  0.44493704     0.05900
C795        C  0.88014662  0.15776507  0.48355456    -0.04060
C796        C  0.87958127  0.13920156  0.51714649    -0.08510
C797        C  0.88090546  0.10777131  0.51337564     0.05020
C798        C  0.88565775  0.09514357  0.47491429    -0.03530
Br799      Br  0.89107318  0.05283688  0.46501988    -0.03230
H800        H  0.88589397  0.10348018  0.41179030     0.08930
H801        H  0.87695294  0.14943938  0.54638282     0.06950
Br802      Br  0.87808350  0.20028752  0.49298623    -0.03660
C803        C  0.84018464  0.44818176  0.64510196    -0.10290
C804        C  0.86493624  0.46021254  0.66622400     0.05900
C805        C  0.88322525  0.44150400  0.69030006    -0.04060
C806        C  0.87701408  0.41060275  0.69184168    -0.08510
C807        C  0.85263907  0.39803636  0.66948844     0.05020
C808        C  0.83377167  0.41761064  0.64627318    -0.03530
Br809      Br  0.80005910  0.40546556  0.61243444    -0.03230
H810        H  0.82623736  0.46270709  0.62630933     0.08930
H811        H  0.89186105  0.39629675  0.70964404     0.06950
Br812      Br  0.91753208  0.45702393  0.71979093    -0.03660
C813        C  0.84964303  0.16554124  0.69612508    -0.10290
C814        C  0.86927106  0.14710976  0.67380426     0.05900
C815        C  0.89384952  0.15999698  0.65287946    -0.04060
C816        C  0.89710892  0.19120631  0.65219225    -0.08510
C817        C  0.87628887  0.21016883  0.67244269     0.05020
C818        C  0.85325654  0.19678662  0.69633152    -0.03530
Br819      Br  0.82450803  0.21911647  0.72801643    -0.03230
H820        H  0.83077657  0.15560841  0.71245938     0.08930
H821        H  0.91525402  0.20067946  0.63411961     0.06950
Br822      Br  0.92155565  0.13615770  0.62123377    -0.03660
C823        C  0.97844059  0.07095809  0.61576066    -0.10290
C824        C  0.96396729  0.05599565  0.64720022     0.05900
C825        C  0.98182172  0.04737079  0.68080211    -0.04060
C826        C  0.01379676  0.05209492  0.68088472    -0.08510
C827        C  0.02826465  0.06557599  0.64815834     0.05020
C828        C  0.00992358  0.07610433  0.61606052    -0.03530
Br829      Br  0.02557170  0.09873167  0.57173224    -0.03230
H830        H  0.96510752  0.07887871  0.59042679     0.08930
H831        H  0.02749645  0.04423438  0.70589575     0.06950
Br832      Br  0.96465731  0.02773366  0.72642242    -0.03660
O833        O  0.85627828  0.60031145  0.57570692    -0.82930
C834        C  0.87198048  0.49177352  0.65876568     0.96420
O835        O  0.88536604  0.49828934  0.62645320    -0.72050
O836        O  0.84581437  0.51342950  0.57072175    -0.75640
Al837      Al  0.88146703  0.53235269  0.59189248     1.48980
C838        C  0.82444166  0.52753647  0.55336859     0.91670
O839        O  0.80080730  0.55796073  0.64264616    -0.81860
O840        O  0.87961075  0.59497881  0.67868006    -0.75420
Al841      Al  0.83003164  0.57813636  0.60984499     1.90120
O842        O  0.82880973  0.55999301  0.69712246    -0.74490
O843        O  0.91354289  0.54649219  0.67251599    -0.74340
O844        O  0.86178002  0.51185258  0.68194169    -0.80000
O845        O  0.91939923  0.54865952  0.60792702    -0.78200
O846        O  0.86053156  0.55444518  0.62653347    -1.14340
O847        O  0.88156401  0.56200951  0.55035855    -0.73530
C848        C  0.87312853  0.58918871  0.54864759     0.97180
C849        C  0.80296988  0.55622807  0.68034758     0.93580
Al850      Al  0.87013879  0.55341831  0.67845927     1.55560
O851        O  0.81703414  0.55351936  0.56522810    -0.78150
C852        C  0.93063649  0.54988572  0.64260092     0.97750
C853        C  0.86136460  0.61542582  0.66761052     0.92630
O854        O  0.83670456  0.60913777  0.64923964    -0.83470
O855        O  0.84875291  0.84823810  0.57870598    -0.82930
C856        C  0.87683604  0.74287170  0.66332587     0.96420
O857        O  0.89048959  0.75135238  0.63186161    -0.72050
O858        O  0.85126250  0.76055253  0.57325677    -0.75640
Al859      Al  0.88315465  0.78446089  0.59627145     1.48980
C860        C  0.82875613  0.77209515  0.55508572     0.91670
O861        O  0.79812733  0.79919935  0.64192577    -0.81860
O862        O  0.86985557  0.84728754  0.68092487    -0.75420
Al863      Al  0.82520176  0.82263738  0.61116240     1.90120
O864        O  0.82315733  0.80609494  0.69834026    -0.74490
O865        O  0.91042360  0.80214598  0.67824393    -0.74340
O866        O  0.86302650  0.76172691  0.68534607    -0.80000
O867        O  0.91802519  0.80585197  0.61394820    -0.78200
O868        O  0.85814095  0.80348740  0.62956068    -1.14340
O869        O  0.88020182  0.81398826  0.55430445    -0.73530
C870        C  0.86722129  0.83946838  0.55218592     0.97180
C871        C  0.79828606  0.80090516  0.67954842     0.93580
Al872      Al  0.86600512  0.80422337  0.68183335     1.55560
O873        O  0.81746940  0.79663808  0.56683355    -0.78150
C874        C  0.92805859  0.80713028  0.64915491     0.97750
C875        C  0.84924413  0.86481584  0.66741809     0.92630
O876        O  0.82589643  0.85394241  0.65035406    -0.83470
O877        O  0.14425892  0.51942755  0.58038629    -0.82930
C878        C  0.11580130  0.62817802  0.65981096     0.96420
O879        O  0.10202831  0.61900518  0.62852375    -0.72050
O880        O  0.14078993  0.60637652  0.57173819    -0.75640
Al881      Al  0.10906332  0.58393933  0.59533249     1.48980
C882        C  0.16233090  0.59407651  0.55284893     0.91670
O883        O  0.19254629  0.57032723  0.64593135    -0.81860
O884        O  0.11826862  0.52519191  0.68248858    -0.75420
Al885      Al  0.16638724  0.54589107  0.61384858     1.90120
O886        O  0.16565496  0.56438684  0.70040231    -0.74490
O887        O  0.07911938  0.57160568  0.67593293    -0.74340
O888        O  0.12885677  0.60978271  0.68316808    -0.80000
O889        O  0.07414602  0.56377948  0.61220427    -0.78200
O890        O  0.13312252  0.56592168  0.62992013    -1.14340
O891        O  0.11202795  0.55268935  0.55604424    -0.73530
C892        C  0.12586912  0.52781829  0.55351172     0.96700
C893        C  0.19093324  0.57043384  0.68366770     0.93580
Al894      Al  0.12375716  0.56749733  0.68163798     1.55560
O895        O  0.17543342  0.57102401  0.56728100    -0.78150
C896        C  0.06217990  0.56686967  0.64576823     0.97750
C897        C  0.13862598  0.00628902  0.67210988     0.92630
O898        O  0.16287804  0.51497208  0.65445475    -0.83470
O899        O  0.13473776  0.77266263  0.57940977    -0.82930
C900        C  0.11569223  0.87911609  0.66578171     0.96420
O901        O  0.10052873  0.87195165  0.63480941    -0.72050
O902        O  0.14123175  0.86023153  0.58123931    -0.75640
Al903      Al  0.10641710  0.83886252  0.59823635     1.48980
C904        C  0.15987570  0.84826932  0.55749002     0.91670
O905        O  0.18955773  0.81829854  0.64182374    -0.81860
O906        O  0.11518298  0.77483886  0.68103676    -0.75420
Al907      Al  0.16087740  0.79618727  0.61094973     1.90120
O908        O  0.16455144  0.81267871  0.69814061    -0.74490
O909        O  0.07755541  0.82156538  0.67813313    -0.74340
O910        O  0.12842098  0.85917606  0.68697944    -0.80000
O911        O  0.06936826  0.82047771  0.61337587    -0.78200
O912        O  0.12935445  0.81719452  0.63051653    -1.14340
O913        O  0.10763095  0.80962347  0.55390963    -0.73530
C914        C  0.11725281  0.78258900  0.55230377     0.97180
C915        C  0.18932731  0.81820623  0.67955400     0.93580
Al916      Al  0.12192432  0.81699934  0.68239932     1.55560
O917        O  0.16972321  0.82208751  0.56485791    -0.78150
C918        C  0.05935080  0.81946899  0.64858271     0.97750
C919        C  0.13469210  0.75586840  0.66868804     0.92630
O920        O  0.15847917  0.76439073  0.65014763    -0.83470
O921        O  0.85653527  0.65075022  0.38189229    -0.82930
C922        C  0.87683455  0.75500534  0.29168924     0.96420
O923        O  0.89114163  0.74837256  0.32346469    -0.72050
O924        O  0.84970987  0.73817711  0.37716868    -0.75640
Al925      Al  0.88429816  0.71637173  0.36075894     1.48980
C926        C  0.82842933  0.72675797  0.39716978     0.91670
O927        O  0.80220206  0.69288278  0.31276878    -0.81860
O928        O  0.87866367  0.65092498  0.27816839    -0.75420
Al929      Al  0.83086830  0.67283965  0.34657687     1.90120
O930        O  0.82947567  0.68773608  0.25812008    -0.74490
O931        O  0.91563208  0.69816242  0.28267505    -0.74340
O932        O  0.86431413  0.73485643  0.27063078    -0.80000
O933        O  0.92098778  0.69682297  0.34759983    -0.78200
O934        O  0.86225232  0.69400685  0.32792744    -1.14340
O935        O  0.88221388  0.68931781  0.40553458    -0.73530
C936        C  0.87324214  0.66243570  0.40869546     0.97180
C937        C  0.80387005  0.69259307  0.27507772     0.93580
Al938      Al  0.87134620  0.69294187  0.27624741     1.55560
O939        O  0.81966278  0.70031921  0.38927377    -0.78150
C940        C  0.93268357  0.69585530  0.31333068     0.97750
C941        C  0.85946284  0.63190476  0.29055311     0.92630
O942        O  0.83572747  0.64022226  0.30948111    -0.83470
O943        O  0.85481385  0.89698894  0.37858132    -0.82930
C944        C  0.87347793  0.00454013  0.29784903     0.96420
O945        O  0.88781451  0.99709409  0.32937447    -0.72050
O946        O  0.84973746  0.98389845  0.38709517    -0.75640
Al947      Al  0.88361142  0.96301731  0.36383301     1.48980
C948        C  0.82713411  0.97164271  0.40382691     0.91670
O949        O  0.79998695  0.94281346  0.31599739    -0.81860
O950        O  0.87541191  0.90106456  0.27634157    -0.75420
Al951      Al  0.82893972  0.92079552  0.34699704     1.90120
O952        O  0.82599793  0.93859144  0.26039391    -0.74490
O953        O  0.91142415  0.94848218  0.28130292    -0.74340
O954        O  0.86115090  0.98514695  0.27529699    -0.80000
O955        O  0.92081433  0.94549877  0.34545367    -0.78200
O956        O  0.86025475  0.94251268  0.32966205    -1.14340
O957        O  0.88318040  0.93267662  0.40525669    -0.73530
C958        C  0.87205841  0.90639757  0.40621997     0.97180
C959        C  0.80093318  0.94354243  0.27826200     0.93580
Al960      Al  0.86792676  0.94324030  0.27747522     1.55560
O961        O  0.81835832  0.94601635  0.39224689    -0.78150
C962        C  0.93015006  0.94594390  0.30987076     0.97750
C963        C  0.85602574  0.88168214  0.28726192     0.92630
O964        O  0.83263642  0.88955719  0.30719251    -0.83470
O965        O  0.14171900  0.71980685  0.38773156    -0.82930
C966        C  0.12014149  0.62078327  0.28760890     0.96420
O967        O  0.10500907  0.62622389  0.31893160    -0.72050
O968        O  0.14938266  0.63261265  0.36983866    -0.75640
Al969      Al  0.11372270  0.65558740  0.35967413     1.48980
C970        C  0.16931687  0.64203188  0.39398959     0.91670
O971        O  0.19504085  0.68108643  0.31422364    -0.81860
O972        O  0.11894067  0.72618533  0.28451585    -0.75420
Al973      Al  0.16702493  0.69950796  0.35053500     1.90120
O974        O  0.16691505  0.68951081  0.26087420    -0.74490
O975        O  0.08140597  0.67936777  0.28518717    -0.74340
O976        O  0.13229976  0.64198433  0.26840424    -0.80000
O977        O  0.07669511  0.67613128  0.35025364    -0.78200
O978        O  0.13509602  0.68004429  0.32957302    -1.14340
O979        O  0.11706367  0.67990760  0.40841083    -0.73530
C980        C  0.12502261  0.70712829  0.41320489     0.97180
C981        C  0.19262424  0.68326229  0.27660141     0.93580
Al982      Al  0.12552306  0.68396445  0.27843440     1.55560
O983        O  0.17831880  0.66901087  0.39097655    -0.78150
C984        C  0.06500005  0.68105592  0.31639587     0.97750
C985        C  0.13827542  0.74444048  0.29914928     0.92630
O986        O  0.16201210  0.73471097  0.31724826    -0.83470
O987        O  0.13914098  0.97725441  0.37509536    -0.82930
C988        C  0.11208750  0.87220357  0.29134843     0.96420
O989        O  0.09437823  0.88264373  0.31814363    -0.72050
O990        O  0.13098582  0.89092310  0.37841009    -0.75640
Al991      Al  0.10215881  0.91612277  0.35379033     1.48980
C992        C  0.15300247  0.90026268  0.39932247     0.91670
O993        O  0.19007597  0.92670427  0.31260276    -0.81860
O994        O  0.11995072  0.97521680  0.26909163    -0.75420
Al995      Al  0.16240104  0.95093457  0.34314059     1.90120
O996        O  0.16581349  0.93372097  0.25605785    -0.74490
O997        O  0.07829436  0.93106981  0.27095233    -0.74340
O998        O  0.12679271  0.88971244  0.26875145    -0.80000
O999        O  0.07021748  0.93986505  0.33415264    -0.78200
O1000       O  0.12942615  0.93308631  0.32262917    -1.14340
O1001       O  0.10509639  0.94506032  0.39630150    -0.73530
C1002       C  0.11992760  0.96909947  0.40080891     0.97180
C1003       C  0.19031190  0.92742478  0.27488765     0.93580
Al1004     Al  0.12320022  0.93247605  0.27001077     1.55560
O1005       O  0.16782566  0.92341331  0.38862026    -0.78150
C1006       C  0.06057202  0.93919402  0.29890516     0.97750
C1007       C  0.14014170  0.49310461  0.28278035     0.92630
O1008       O  0.16220845  0.98315036  0.30412433    -0.83470
O1009       O  0.64513868  0.60343810  0.87856824    -0.82930
C1010       C  0.61806503  0.49371603  0.80469886     0.96420
O1011       O  0.60529820  0.50282698  0.83670944    -0.72050
O1012       O  0.64549153  0.51690226  0.89180164    -0.75640
Al1013     Al  0.61215301  0.53844617  0.86902659     1.48980
C1014       C  0.66882861  0.52880866  0.90742535     0.91670
O1015       O  0.69475418  0.55278333  0.81467830    -0.81860
O1016       O  0.61908603  0.59696133  0.77900758    -0.75420
Al1017     Al  0.66817073  0.57708895  0.84685840     1.90120
O1018       O  0.66596251  0.55677694  0.76117129    -0.74490
O1019       O  0.58065566  0.55155072  0.78793088    -0.74340
O1020       O  0.62924676  0.51222924  0.78024792    -0.80000
O1021       O  0.57568022  0.55765033  0.85218109    -0.78200
O1022       O  0.63500918  0.55636500  0.83258707    -1.14340
O1023       O  0.61526749  0.57072028  0.90792689    -0.73530
C1024       C  0.62713677  0.59671660  0.90632282     0.97180
C1025       C  0.69207021  0.55231621  0.77693274     0.93580
Al1026     Al  0.62457617  0.55445258  0.78112010     1.55560
O1027       O  0.67919164  0.55311730  0.89347566    -0.78150
C1028       C  0.56423061  0.55803130  0.81771409     0.97750
C1029       C  0.63961968  0.61584338  0.78839747     0.92630
O1030       O  0.66395277  0.60703465  0.80574210    -0.83470
O1031       O  0.64062665  0.84716262  0.87964113    -0.82930
C1032       C  0.61453270  0.74259332  0.79202910     0.96420
O1033       O  0.60024882  0.74946242  0.82384110    -0.72050
O1034       O  0.64000059  0.76013068  0.88060073    -0.75640
Al1035     Al  0.60654000  0.78283099  0.86019652     1.48980
C1036       C  0.66195672  0.77191499  0.89931842     0.91670
O1037       O  0.68874709  0.80049732  0.80943981    -0.81860
O1038       O  0.61297892  0.84675033  0.77850895    -0.75420
Al1039     Al  0.66277361  0.82299003  0.84363554     1.90120
O1040       O  0.66113270  0.80915401  0.75579152    -0.74490
O1041       O  0.57563308  0.79979937  0.78078734    -0.74340
O1042       O  0.62590158  0.76254387  0.76977385    -0.80000
O1043       O  0.57015423  0.80230711  0.84540455    -0.78200
O1044       O  0.62951139  0.80337008  0.82668106    -1.14340
O1045       O  0.60902874  0.81260279  0.90202030    -0.73530
C1046       C  0.62256739  0.83761447  0.90594290     0.97180
C1047       C  0.68657714  0.80215647  0.77194895     0.93580
Al1048     Al  0.61962275  0.80451523  0.77505242     1.55560
O1049       O  0.67348560  0.79606548  0.88682114    -0.78150
C1050       C  0.55868349  0.80285444  0.81104239     0.97750
C1051       C  0.63307704  0.86512475  0.79086671     0.92630
O1052       O  0.65813841  0.85576059  0.80607541    -0.83470
O1053       O  0.35557119  0.52339156  0.87726161    -0.82930
C1054       C  0.37621827  0.63231279  0.79827381     0.96420
O1055       O  0.38860833  0.62504770  0.83124523    -0.72050
O1056       O  0.34835671  0.61071824  0.88574700    -0.75640
Al1057     Al  0.38350259  0.59060917  0.86517907     1.48980
C1058       C  0.32675298  0.59714989  0.90274875     0.91670
O1059       O  0.30238869  0.57025756  0.81354801    -0.81860
O1060       O  0.37924105  0.52851223  0.77777785    -0.75420
Al1061     Al  0.33032572  0.54759170  0.84502430     1.90120
O1062       O  0.32970556  0.56644464  0.75884893    -0.74490
O1063       O  0.41540740  0.57563548  0.78497819    -0.74340
O1064       O  0.36505884  0.61268564  0.77506841    -0.80000
O1065       O  0.42135116  0.57362784  0.84981726    -0.78200
O1066       O  0.36196376  0.56985182  0.82959669    -1.14340
O1067       O  0.38201986  0.55982346  0.90601039    -0.73530
C1068       C  0.37179660  0.53314359  0.90577985     0.97180
C1069       C  0.30411258  0.57127114  0.77584691     0.93580
Al1070     Al  0.37162113  0.57071792  0.77805301     1.55560
O1071       O  0.31882183  0.57142533  0.89074874    -0.78150
C1072       C  0.43260651  0.57316209  0.81528573     0.97750
C1073       C  0.35964290  0.00919798  0.78809442     0.92630
O1074       O  0.33475547  0.51730717  0.80431394    -0.83470
O1075       O  0.35061753  0.77180684  0.87759094    -0.82930
C1076       C  0.37290097  0.88139621  0.80073233     0.96420
O1077       O  0.38598046  0.87304851  0.83282982    -0.72050
O1078       O  0.34472170  0.85941298  0.88646713    -0.75640
Al1079     Al  0.37941090  0.83848532  0.86625599     1.48980
C1080       C  0.32271820  0.84614711  0.90309502     0.91670
O1081       O  0.29804649  0.81914859  0.81398642    -0.81860
O1082       O  0.37446841  0.77830655  0.77683127    -0.75420
Al1083     Al  0.32581498  0.79645426  0.84520915     1.90120
O1084       O  0.32545366  0.81674436  0.75934416    -0.74490
O1085       O  0.41094351  0.82472325  0.78602336    -0.74340
O1086       O  0.36108814  0.86241112  0.77720277    -0.80000
O1087       O  0.41638504  0.81979742  0.85067509    -0.78200
O1088       O  0.35751054  0.81864170  0.83023082    -1.14340
O1089       O  0.37673552  0.80787435  0.90717521    -0.73530
C1090       C  0.36615731  0.78135626  0.90680828     0.97180
C1091       C  0.29974130  0.82066366  0.77647203     0.93580
Al1092     Al  0.36720389  0.82042421  0.77873527     1.55560
O1093       O  0.31433119  0.82056633  0.89088041    -0.78150
C1094       C  0.42758648  0.81910035  0.81610038     0.97750
C1095       C  0.35500093  0.75870377  0.78653452     0.92630
O1096       O  0.33053445  0.76627880  0.80430471    -0.83470
O1097       O  0.63587414  0.65369593  0.07515376    -0.82930
C1098       C  0.61497725  0.75593601  0.17055171     0.96420
O1099       O  0.59919337  0.74833344  0.14042559    -0.72050
O1100       O  0.64036616  0.74127599  0.08466634    -0.75640
Al1101     Al  0.60697095  0.71768309  0.10131900     1.48980
C1102       C  0.66033774  0.73064484  0.06147549     0.91670
O1103       O  0.69203274  0.69482236  0.14225569    -0.81860
O1104       O  0.61861788  0.65168865  0.18131221    -0.75420
Al1105     Al  0.66230756  0.67538479  0.10971709     1.90120
O1106       O  0.66725867  0.68975158  0.19884451    -0.74490
O1107       O  0.57981333  0.69732678  0.18032051    -0.74340
O1108       O  0.62994267  0.73634614  0.18990585    -0.80000
O1109       O  0.57203393  0.69579781  0.11550013    -0.78200
O1110       O  0.63126334  0.69556244  0.13162050    -1.14340
O1111       O  0.60909044  0.69256443  0.05452641    -0.73530
C1112       C  0.61925698  0.66628672  0.04918315     0.97180
C1113       C  0.69212427  0.69370732  0.17993680     0.93580
Al1114     Al  0.62448264  0.69391332  0.18379907     1.55560
O1115       O  0.67084706  0.70445234  0.06768907    -0.78150
C1116       C  0.56213856  0.69307696  0.15058101     0.97750
C1117       C  0.63725323  0.63293786  0.16639644     0.92630
O1118       O  0.65963595  0.64161569  0.14531179    -0.83470
O1119       O  0.63963275  0.89661865  0.07999865    -0.82930
C1120       C  0.61685092  0.00580618  0.15787244     0.96420
O1121       O  0.60323380  0.99754537  0.12610802    -0.72050
O1122       O  0.64423042  0.98369644  0.07210827    -0.75640
Al1123     Al  0.60991156  0.96283388  0.09241503     1.48980
C1124       C  0.66718765  0.97128758  0.05609112     0.91670
O1125       O  0.69182905  0.94282696  0.14625120    -0.81860
O1126       O  0.61478921  0.90277240  0.18148299    -0.75420
Al1127     Al  0.66406355  0.92080627  0.11326554     1.90120
O1128       O  0.66309609  0.94048515  0.19964294    -0.74490
O1129       O  0.57824034  0.94970663  0.17230826    -0.74340
O1130       O  0.62871753  0.98681939  0.18130192    -0.80000
O1131       O  0.57316463  0.94422012  0.10781038    -0.78200
O1132       O  0.63204648  0.94296593  0.12826183    -1.14340
O1133       O  0.61239708  0.93227921  0.05142446    -0.73530
C1134       C  0.62274996  0.90566402  0.05179908     0.97180
C1135       C  0.68918792  0.94378857  0.18388150     0.93580
Al1136     Al  0.62200735  0.94486017  0.17967539     1.55560
O1137       O  0.67614975  0.94576619  0.06817723    -0.78150
C1138       C  0.56163643  0.94415813  0.14218531     0.97750
C1139       C  0.63449650  0.88296796  0.17233626     0.92630
O1140       O  0.65855813  0.89003788  0.15332278    -0.83470
O1141       O  0.35428952  0.72186063  0.07755958    -0.82930
C1142       C  0.37528062  0.61551639  0.16142484     0.96420
O1143       O  0.38967139  0.62255131  0.12997298    -0.72050
O1144       O  0.34986378  0.63457674  0.07377837    -0.75640
Al1145     Al  0.38398356  0.65595267  0.09436611     1.48980
C1146       C  0.32732446  0.64669010  0.05644061     0.91670
O1147       O  0.30165570  0.67719277  0.14349416    -0.81860
O1148       O  0.37770871  0.71950283  0.17968460    -0.75420
Al1149     Al  0.32957608  0.69856620  0.11099988     1.90120
O1150       O  0.32878167  0.68248585  0.19838368    -0.74490
O1151       O  0.41423929  0.67182169  0.17488804    -0.74340
O1152       O  0.36359740  0.63537508  0.18384189    -0.80000
O1153       O  0.42101570  0.67431236  0.11028982    -0.78200
O1154       O  0.36143169  0.67718123  0.12831354    -1.14340
O1155       O  0.38211744  0.68519022  0.05184810    -0.73530
C1156       C  0.37109070  0.71154395  0.05018081     0.97180
C1157       C  0.30328308  0.67767291  0.18120179     0.93580
Al1158     Al  0.37044973  0.67728112  0.18021687     1.55560
O1159       O  0.31844105  0.67257570  0.06697242    -0.78150
C1160       C  0.43183435  0.67418535  0.14517978     0.97750
C1161       C  0.35781816  0.73858272  0.16854064     0.92630
O1162       O  0.33405288  0.73026691  0.14960245    -0.83470
O1163       O  0.35201154  0.97231769  0.07695419    -0.82930
C1164       C  0.37596214  0.86541149  0.15944795     0.96420
O1165       O  0.38948967  0.87286983  0.12748749    -0.72050
O1166       O  0.34802402  0.88450902  0.07300831    -0.75640
Al1167     Al  0.38218145  0.90641081  0.09214300     1.48980
C1168       C  0.32523464  0.89650099  0.05611553     0.91670
O1169       O  0.30103245  0.92647523  0.14304988    -0.81860
O1170       O  0.37686197  0.96872426  0.17892695    -0.75420
Al1171     Al  0.32808814  0.94846463  0.11073426     1.90120
O1172       O  0.32777818  0.93134187  0.19813634    -0.74490
O1173       O  0.41385377  0.92163381  0.17168391    -0.74340
O1174       O  0.36343951  0.88483203  0.18172396    -0.80000
O1175       O  0.41883545  0.92558401  0.10688647    -0.78200
O1176       O  0.36012325  0.92713284  0.12702416    -1.14340
O1177       O  0.37887648  0.93581851  0.04945800    -0.73530
C1178       C  0.36778873  0.96222298  0.04845489     0.97180
C1179       C  0.30218774  0.92700064  0.18060766     0.93580
Al1180     Al  0.36978417  0.92667377  0.17875097     1.55560
O1181       O  0.31649111  0.92247820  0.06662874    -0.78150
C1182       C  0.43066459  0.92471101  0.14117413     0.97750
C1183       C  0.35745738  0.98814383  0.16766806     0.92630
O1184       O  0.33302253  0.98009777  0.14984447    -0.83470
C1185       C  0.34324440  0.82228664  0.17607324    -0.10290
C1186       C  0.37284799  0.83341409  0.16917601     0.05900
C1187       C  0.39794985  0.81338156  0.16787627    -0.04060
C1188       C  0.39286807  0.78243445  0.17112365    -0.08510
C1189       C  0.36287405  0.77106344  0.17481283     0.05020
C1190       C  0.33799044  0.79141897  0.17852045    -0.03530
Br1191     Br  0.29619249  0.77867338  0.18602404    -0.03230
H1192       H  0.32381629  0.83761668  0.17736850     0.08930
H1193       H  0.41223749  0.76717039  0.16834003     0.06950
Br1194     Br  0.43938563  0.82726527  0.16146559    -0.03660
C1195       C  0.39669567  0.56417648  0.16782730    -0.10290
C1196       C  0.37127658  0.58348931  0.17060566     0.05900
C1197       C  0.34176640  0.57128497  0.17639818    -0.04060
C1198       C  0.33804041  0.54011715  0.17787756    -0.08510
C1199       C  0.36331398  0.52059914  0.17360168     0.05020
C1200       C  0.39304941  0.53299438  0.16939313    -0.03530
Br1201     Br  0.42922568  0.50905619  0.16055259    -0.03230
H1202       H  0.41938256  0.57339472  0.16266805     0.08930
H1203       H  0.31502946  0.53106030  0.18054748     0.06950
Br1204     Br  0.30528660  0.59577222  0.17711777    -0.03660
C1205       C  0.51528588  0.91851132  0.11707488    -0.10290
C1206       C  0.52852981  0.93723100  0.14617981     0.05900
C1207       C  0.50957623  0.94940700  0.17648406    -0.04060
C1208       C  0.47778234  0.94389369  0.17572234    -0.08510
C1209       C  0.46445788  0.92681759  0.14483936     0.05020
C1210       C  0.48376990  0.91317596  0.11615837    -0.03530
Br1211     Br  0.46902954  0.88607609  0.07553434    -0.03230
H1212       H  0.52958375  0.90803845  0.09447987     0.08930
H1213       H  0.46327119  0.95410932  0.19828702     0.06950
Br1214     Br  0.52500835  0.97555615  0.21762959    -0.03660
C1215       C  0.64638257  0.79972695  0.19204244    -0.10290
C1216       C  0.61756084  0.78832762  0.18043334     0.05900
C1217       C  0.59340221  0.80878064  0.17217003    -0.04060
C1218       C  0.59895059  0.83972037  0.17296591    -0.08510
C1219       C  0.62845798  0.85096010  0.18095813     0.05020
C1220       C  0.65206864  0.83073303  0.19194424    -0.03530
Br1221     Br  0.69255994  0.84421419  0.20634825    -0.03230
H1222       H  0.66518485  0.78443401  0.19861034     0.08930
H1223       H  0.58052224  0.85499022  0.16469592     0.06950
Br1224     Br  0.55255857  0.79605729  0.15808858    -0.03660
C1225       C  0.60178230  0.58957261  0.16493243    -0.10290
C1226       C  0.63176473  0.60044203  0.17101094     0.05900
C1227       C  0.65606873  0.57979465  0.17666158    -0.04060
C1228       C  0.65024930  0.54891207  0.17476467    -0.08510
C1229       C  0.62062085  0.53812616  0.16615880     0.05020
C1230       C  0.59613909  0.55869666  0.16194261    -0.03530
Br1231     Br  0.55471998  0.54577615  0.15190626    -0.03230
H1232       H  0.58289903  0.60519015  0.16038378     0.08930
H1233       H  0.66926697  0.53326741  0.17805638     0.06950
Br1234     Br  0.69758225  0.59249316  0.18676053    -0.03660
C1235       C  0.47778186  0.69584648  0.17954279    -0.10290
C1236       C  0.46540538  0.67610935  0.15085452     0.05900
C1237       C  0.48548559  0.65919715  0.12654252    -0.04060
C1238       C  0.51708930  0.66394887  0.12897191    -0.08510
C1239       C  0.52946417  0.68519088  0.15551195     0.05020
C1240       C  0.50967128  0.70052425  0.18202838    -0.03530
Br1241     Br  0.52452096  0.72987682  0.21946016    -0.03230
H1242       H  0.46255330  0.70867897  0.19873788     0.08930
H1243       H  0.53215283  0.65140682  0.10927387     0.06950
Br1244     Br  0.47130445  0.62876399  0.09001865    -0.03660
C1245       C  0.30660190  0.90071519  0.98642174    -0.10290
C1246       C  0.31262313  0.88219137  0.01953260     0.05900
C1247       C  0.31395865  0.85078765  0.01361913    -0.04060
C1248       C  0.31278565  0.83898661  0.97479199    -0.08510
C1249       C  0.31118639  0.85803604  0.94144659     0.05020
C1250       C  0.30641804  0.88897220  0.94754946    -0.03530
Br1251     Br  0.30239296  0.91629626  0.90359494    -0.03230
H1252       H  0.30542684  0.92479706  0.99018575     0.08930
H1253       H  0.31654537  0.81511019  0.97059994     0.06950
Br1254     Br  0.32029097  0.82317976  0.05695227    -0.03660
C1255       C  0.39702623  0.75917736  0.96281715    -0.10290
C1256       C  0.36878450  0.76235315  0.94246559     0.05900
C1257       C  0.34223077  0.74858641  0.95807498    -0.04060
C1258       C  0.34419959  0.73244334  0.99326980    -0.08510
C1259       C  0.37225190  0.72855411  0.01301171     0.05020
C1260       C  0.39899428  0.74183325  0.99776597    -0.03530
Br1261     Br  0.43770505  0.73817868  0.02495585    -0.03230
H1262       H  0.41742232  0.77013376  0.95158733     0.08930
H1263       H  0.32337823  0.72316010  0.00580462     0.06950
Br1264     Br  0.30174161  0.75251651  0.93527094    -0.03660
C1265       C  0.30942141  0.65136370  0.98640439    -0.10290
C1266       C  0.31512992  0.63263908  0.01943638     0.05900
C1267       C  0.31649284  0.60129715  0.01321245    -0.04060
C1268       C  0.31583443  0.58976034  0.97425004    -0.08510
C1269       C  0.31498275  0.60899469  0.94106360     0.05020
C1270       C  0.31009233  0.63989545  0.94736833    -0.03530
Br1271     Br  0.30672383  0.66745265  0.90358993    -0.03230
H1272       H  0.30763751  0.67538598  0.99050360     0.08930
H1273       H  0.31929342  0.56590806  0.96994234     0.06950
Br1274     Br  0.32192842  0.57341199  0.05640897    -0.03660
C1275       C  0.34472090  0.50784716  0.95892460    -0.10290
C1276       C  0.37308454  0.51486592  0.94200203     0.05900
C1277       C  0.40041115  0.50474522  0.96025893    -0.04060
C1278       C  0.39870753  0.98684957  0.99475982    -0.08510
C1279       C  0.37003502  0.98052894  0.01214786     0.05020
C1280       C  0.34293889  0.99181789  0.99420003    -0.03530
Br1281     Br  0.30234575  0.98634262  0.01546019    -0.03230
H1282       H  0.32358265  0.51557981  0.94494943     0.08930
H1283       H  0.41966048  0.97847696  0.00846624     0.06950
Br1284     Br  0.43990376  0.51421235  0.93855031    -0.03660
C1285       C  0.34334219  0.95804052  0.76814556    -0.10290
C1286       C  0.36606045  0.97686653  0.78420227     0.05900
C1287       C  0.39196137  0.96402026  0.80304766    -0.04060
C1288       C  0.39442283  0.93281263  0.80632269    -0.08510
C1289       C  0.37125269  0.91384820  0.79142178     0.05020
C1290       C  0.34569587  0.92677228  0.77142165    -0.03530
Br1291     Br  0.31143259  0.90365777  0.75197687    -0.03230
H1292       H  0.32294367  0.96779693  0.75460517     0.08930
H1293       H  0.41399972  0.92337997  0.82211211     0.06950
Br1294     Br  0.42245430  0.98795320  0.82981837    -0.03660
C1295       C  0.39115806  0.71592265  0.79157853    -0.10290
C1296       C  0.36181515  0.72651862  0.78075715     0.05900
C1297       C  0.33862392  0.70568795  0.77085000    -0.04060
C1298       C  0.34454416  0.67487421  0.77410748    -0.08510
C1299       C  0.37311876  0.66437534  0.78809827     0.05020
C1300       C  0.39686297  0.68513208  0.79573579    -0.03530
Br1301     Br  0.43728874  0.67270147  0.81238546    -0.03230
H1302       H  0.40919751  0.73169840  0.79929608     0.08930
H1303       H  0.32615952  0.65912074  0.76785373     0.06950
Br1304     Br  0.29836629  0.71811134  0.75352106    -0.03660
C1305       C  0.64466161  0.77448835  0.96823884    -0.10290
C1306       C  0.66651883  0.76329853  0.94157441     0.05900
C1307       C  0.69014168  0.74475408  0.95637343    -0.04060
C1308       C  0.68953382  0.73568532  0.99680393    -0.08510
C1309       C  0.66636041  0.74621421  0.02307498     0.05020
C1310       C  0.64485017  0.76746805  0.00835408    -0.03530
Br1311     Br  0.61280549  0.78713951  0.03870491    -0.03230
H1312       H  0.62637204  0.78893277  0.95805059     0.08930
H1313       H  0.70649142  0.71959600  0.00728768     0.06950
Br1314     Br  0.72247365  0.73083540  0.92229404    -0.03660
C1315       C  0.59352899  0.86789984  0.95653759    -0.10290
C1316       C  0.62089710  0.85395000  0.94402629     0.05900
C1317       C  0.64721551  0.85544543  0.96870364    -0.04060
C1318       C  0.64576126  0.87010731  0.00517959    -0.08510
C1319       C  0.61941753  0.88598101  0.01663143     0.05020
C1320       C  0.59286439  0.88464699  0.99228318    -0.03530
Br1321     Br  0.55532234  0.90440381  0.00704381    -0.03230
H1322       H  0.57309844  0.86659623  0.93796113     0.08930
H1323       H  0.66640460  0.87094883  0.02346439     0.06950
Br1324     Br  0.68680763  0.83964879  0.95437892    -0.03660
C1325       C  0.47797763  0.82862003  0.78323902    -0.10290
C1326       C  0.46061647  0.81246423  0.81121905     0.05900
C1327       C  0.47552027  0.79123090  0.83579164    -0.04060
C1328       C  0.50737366  0.78800505  0.83403823    -0.08510
C1329       C  0.52498163  0.80518580  0.80761669     0.05020
C1330       C  0.51003918  0.82511916  0.78126248    -0.03530
Br1331     Br  0.53242101  0.84983355  0.74473930    -0.03230
H1332       H  0.46676224  0.84491508  0.76405457     0.08930
H1333       H  0.51856690  0.77204070  0.85376594     0.06950
Br1334     Br  0.45363000  0.76514927  0.87132906    -0.03660
C1335       C  0.68549844  0.98438559  0.94742882    -0.10290
C1336       C  0.68099512  0.51558707  0.94513393     0.05900
C1337       C  0.68054721  0.53223142  0.98118695    -0.04060
C1338       C  0.67966379  0.51737711  0.01800031    -0.08510
C1339       C  0.68054832  0.98590654  0.02012384     0.05020
C1340       C  0.68637791  0.96964700  0.98450957    -0.03530
Br1341     Br  0.69285999  0.92714322  0.98377212    -0.03230
H1342       H  0.68654119  0.97118703  0.92017380     0.08930
H1343       H  0.67593855  0.53044643  0.04497668     0.06950
Br1344     Br  0.67698262  0.57499277  0.98264375    -0.03660
C1345       C  0.64197059  0.65675907  0.98423644    -0.10290
C1346       C  0.61705015  0.65247994  0.00967382     0.05900
C1347       C  0.59300924  0.63333816  0.99821305    -0.04060
C1348       C  0.59573972  0.61630675  0.96307464    -0.08510
C1349       C  0.62197928  0.61881202  0.93877795     0.05020
C1350       C  0.64464062  0.64051717  0.94885044    -0.03530
Br1351     Br  0.68210713  0.64705643  0.91960135    -0.03230
H1352       H  0.66034073  0.67188713  0.99298575     0.08930
H1353       H  0.57781896  0.60041004  0.95543173     0.06950
Br1354     Br  0.55681967  0.62938601  0.03011823    -0.03660
C1355       C  0.59865355  0.94151651  0.81351415    -0.10290
C1356       C  0.62044818  0.96090519  0.79659622     0.05900
C1357       C  0.64548926  0.94816671  0.77528615    -0.04060
C1358       C  0.64857822  0.91687702  0.77236226    -0.08510
C1359       C  0.62698548  0.89772980  0.78972415     0.05020
C1360       C  0.60171058  0.91026616  0.81022610    -0.03530
Br1361     Br  0.57253672  0.88575798  0.83800058    -0.03230
H1362       H  0.57952441  0.95067555  0.83035489     0.08930
H1363       H  0.66841721  0.90739537  0.75729597     0.06950
Br1364     Br  0.67799458  0.97162933  0.75248691    -0.03660
C1365       C  0.60399645  0.65898526  0.77623764    -0.10290
C1366       C  0.63440338  0.64854097  0.78176048     0.05900
C1367       C  0.65828836  0.67002248  0.78569416    -0.04060
C1368       C  0.65117987  0.70069197  0.78607372    -0.08510
C1369       C  0.62068826  0.71072889  0.78334970     0.05020
C1370       C  0.59703250  0.68976508  0.77746233    -0.03530
Br1371     Br  0.55499820  0.70231010  0.77156932    -0.03230
H1372       H  0.58525233  0.64316080  0.77307605     0.08930
H1373       H  0.66950301  0.71683333  0.79071037     0.06950
Br1374     Br  0.70107082  0.65979078  0.79212083    -0.03660
C1375       C  0.51337029  0.54905333  0.78474729    -0.10290
C1376       C  0.53110870  0.56499502  0.81290219     0.05900
C1377       C  0.51636978  0.58593877  0.83821641    -0.04060
C1378       C  0.48436081  0.58850205  0.83768479    -0.08510
C1379       C  0.46640355  0.57127394  0.81132071     0.05020
C1380       C  0.48121378  0.55222251  0.78354641    -0.03530
Br1381     Br  0.45874600  0.02846431  0.74546172    -0.03230
H1382       H  0.52439708  0.53317704  0.76472191     0.08930
H1383       H  0.47336241  0.60412680  0.85811282     0.06950
Br1384     Br  0.53874161  0.61266500  0.87291641    -0.03660
C1385       C  0.21773220  0.92854402  0.21022639    -0.10290
C1386       C  0.21923870  0.92333186  0.25160150     0.05900
C1387       C  0.24833701  0.91694654  0.26885894    -0.04060
C1388       C  0.27488618  0.91746234  0.24503805    -0.08510
C1389       C  0.27330583  0.92406376  0.20397228     0.05020
C1390       C  0.24400636  0.92920623  0.18656952    -0.03530
Br1391     Br  0.23718873  0.93978268  0.13146779    -0.03230
H1392       H  0.19586846  0.93338947  0.19593183     0.08930
H1393       H  0.29700153  0.91303602  0.25892454     0.06950
Br1394     Br  0.25398229  0.90749096  0.32436898    -0.03660
C1395       C  0.24786736  0.66948504  0.26821301    -0.10290
C1396       C  0.22014511  0.67940129  0.25078817     0.05900
C1397       C  0.21979814  0.68595661  0.20929876    -0.04060
C1398       C  0.24689553  0.68379717  0.18722257    -0.08510
C1399       C  0.27481641  0.67535066  0.20512660     0.05020
C1400       C  0.27496139  0.66731808  0.24593332    -0.03530
Br1401     Br  0.31091335  0.65242248  0.27311422    -0.03230
H1402       H  0.24866005  0.66357945  0.29957755     0.08930
H1403       H  0.24626952  0.68997191  0.15593322     0.06950
Br1404     Br  0.18414112  0.69936418  0.17994416    -0.03660
C1405       C  0.11733943  0.78923483  0.26217413    -0.10290
C1406       C  0.13293431  0.77741650  0.29575605     0.05900
C1407       C  0.14185923  0.79747680  0.32659388    -0.04060
C1408       C  0.13444665  0.82787513  0.32391956    -0.08510
C1409       C  0.11872403  0.83959621  0.29089722     0.05020
C1410       C  0.11072782  0.82019313  0.25928603    -0.03530
Br1411     Br  0.09028660  0.83499179  0.21248321    -0.03230
H1412       H  0.11042329  0.77440315  0.23803197     0.08930
H1413       H  0.14147083  0.84254195  0.34800116     0.06950
Br1414     Br  0.16302264  0.78574469  0.37459524    -0.03660
C1415       C  0.15575137  0.57764934  0.28136213    -0.10290
C1416       C  0.12585617  0.58907500  0.27659294     0.05900
C1417       C  0.10160010  0.56899282  0.26912843    -0.04060
C1418       C  0.10722426  0.53792601  0.26831116    -0.08510
C1419       C  0.13681658  0.52613130  0.27603168     0.05020
C1420       C  0.16143971  0.54658813  0.28150309    -0.03530
Br1421     Br  0.20326696  0.53410335  0.29062793    -0.03230
H1422       H  0.17454739  0.59294830  0.28759712     0.08930
H1423       H  0.08791308  0.52292310  0.26394947     0.06950
Br1424     Br  0.06027015  0.58312237  0.26129608    -0.03660
C1425       C  0.74487653  0.95525420  0.19193359    -0.10290
C1426       C  0.71688602  0.94717499  0.20969210     0.05900
C1427       C  0.71661993  0.94097061  0.25126459    -0.04060
C1428       C  0.74407754  0.94141328  0.27309085    -0.08510
C1429       C  0.77225459  0.94778734  0.25479118     0.05020
C1430       C  0.77231296  0.95577459  0.21390430    -0.03530
Br1431     Br  0.80860198  0.96818562  0.18585736    -0.03230
H1432       H  0.74560748  0.96082656  0.16046460     0.08930
H1433       H  0.74345892  0.93543488  0.30443715     0.06950
Br1434     Br  0.68055239  0.92982193  0.28081792    -0.03660
C1435       C  0.98140999  0.96809260  0.32005695    -0.10290
C1436       C  0.96338414  0.94587438  0.30181358     0.05900
C1437       C  0.97741137  0.92488978  0.27589398    -0.04060
C1438       C  0.00951934  0.92456660  0.27185674    -0.08510
C1439       C  0.02768789  0.94550572  0.29256385     0.05020
C1440       C  0.01323389  0.96843313  0.31489824    -0.03530
Br1441     Br  0.03616027  0.00070689  0.33884286    -0.03230
H1442       H  0.97066421  0.98524017  0.33846091     0.08930
H1443       H  0.02036878  0.90677634  0.25469842     0.06950
Br1444     Br  0.95415846  0.89477426  0.24816362    -0.03660
C1445       C  0.77547751  0.68268870  0.21184008    -0.10290
C1446       C  0.77563481  0.69576168  0.25016011     0.05900
C1447       C  0.74851436  0.71003283  0.26390722    -0.04060
C1448       C  0.72181981  0.70967698  0.24019565    -0.08510
C1449       C  0.72152015  0.69578085  0.20240874     0.05020
C1450       C  0.74893063  0.68248927  0.18809643    -0.03530
Br1451     Br  0.75130708  0.66114631  0.13814666    -0.03230
H1452       H  0.79589423  0.67145521  0.20069043     0.08930
H1453       H  0.70109723  0.72033042  0.25140491     0.06950
Br1454     Br  0.74647794  0.73135862  0.31386937    -0.03660
C1455       C  0.84309985  0.79789088  0.27453984    -0.10290
C1456       C  0.87295913  0.78691744  0.28133846     0.05900
C1457       C  0.89753909  0.80731183  0.28429189    -0.04060
C1458       C  0.89171394  0.83822838  0.28311377    -0.08510
C1459       C  0.86154211  0.84936098  0.27950549     0.05020
C1460       C  0.83715901  0.82882809  0.27394765    -0.03530
Br1461     Br  0.79522167  0.84153694  0.26655921    -0.03230
H1462       H  0.82400160  0.78236438  0.27225787     0.08930
H1463       H  0.91065585  0.85357199  0.28773412     0.06950
Br1464     Br  0.93932313  0.79400147  0.29093043    -0.03660
C1465       C  0.83876093  0.58091009  0.27943430    -0.10290
C1466       C  0.86455853  0.59947605  0.28450058     0.05900
C1467       C  0.89383644  0.58620666  0.28991875    -0.04060
C1468       C  0.89653521  0.55495122  0.29187077    -0.08510
C1469       C  0.87053264  0.53657479  0.28849037     0.05020
C1470       C  0.84148683  0.54970023  0.28151573    -0.03530
Br1471     Br  0.80426743  0.52654871  0.28020743    -0.03230
H1472       H  0.81608235  0.59079491  0.27589641     0.08930
H1473       H  0.91886431  0.54497024  0.29788214     0.06950
Br1474     Br  0.93033305  0.60921928  0.30018554    -0.03660
C1475       C  0.98373340  0.70362331  0.34407071    -0.10290
C1476       C  0.96672643  0.69371811  0.31072742     0.05900
C1477       C  0.98278742  0.68203487  0.27744391    -0.04060
C1478       C  0.01496818  0.67896444  0.27921716    -0.08510
C1479       C  0.03161746  0.68757551  0.31355502     0.05020
C1480       C  0.01562016  0.70091886  0.34571036    -0.03530
Br1481     Br  0.03557529  0.71712873  0.39248676    -0.03230
H1482       H  0.97212937  0.71373244  0.36941678     0.08930
H1483       H  0.02689977  0.66890528  0.25410951     0.06950
Br1484     Br  0.96239754  0.66849905  0.22971646    -0.03660
C1485       C  0.21581755  0.82780892  0.74420872    -0.10290
C1486       C  0.21811777  0.82307868  0.70276101     0.05900
C1487       C  0.24777428  0.82131193  0.68556960    -0.04060
C1488       C  0.27384226  0.82213696  0.71014858    -0.08510
C1489       C  0.27144969  0.82474611  0.75192109     0.05020
C1490       C  0.24188300  0.82880249  0.76876247    -0.03530
Br1491     Br  0.23452187  0.83538614  0.82478725    -0.03230
H1492       H  0.19341397  0.83013582  0.75799508     0.08930
H1493       H  0.29620084  0.81957385  0.69632694     0.06950
Br1494     Br  0.25520288  0.81600217  0.62935754    -0.03660
C1495       C  0.13395417  0.87243585  0.50233775    -0.10290
C1496       C  0.16194650  0.86189539  0.51724963     0.05900
C1497       C  0.18824610  0.86368249  0.49279369    -0.04060
C1498       C  0.18579967  0.87686202  0.45433199    -0.08510
C1499       C  0.15701028  0.88679933  0.43955347     0.05020
C1500       C  0.13095879  0.88398058  0.46450753    -0.03530
Br1501     Br  0.08931261  0.89510106  0.45196089    -0.03230
H1502       H  0.11324915  0.87089747  0.52005527     0.08930
H1503       H  0.20606992  0.87872895  0.43580699     0.06950
Br1504     Br  0.22741037  0.84945182  0.51116491    -0.03660
C1505       C  0.12072884  0.73220489  0.52114625    -0.10290
C1506       C  0.11115848  0.76231313  0.51751616     0.05900
C1507       C  0.10113836  0.77234523  0.47951546    -0.04060
C1508       C  0.10418880  0.75338873  0.44598397    -0.08510
C1509       C  0.11644401  0.72423297  0.44958762     0.05020
C1510       C  0.12387738  0.71358346  0.48786737    -0.03530
Br1511     Br  0.14324549  0.67578685  0.49655882    -0.03230
H1512       H  0.12805992  0.72348118  0.54986178     0.08930
H1513       H  0.09795945  0.76182552  0.41670001     0.06950
Br1514     Br  0.08435014  0.81161095  0.47057467    -0.03660
C1515       C  0.24763497  0.57821149  0.68851300    -0.10290
C1516       C  0.21924288  0.57529049  0.70813149     0.05900
C1517       C  0.21919126  0.57500052  0.75048118    -0.04060
C1518       C  0.24704148  0.57503709  0.77155518    -0.08510
C1519       C  0.27551932  0.57571003  0.75180256     0.05020
C1520       C  0.27549245  0.57866106  0.70968520    -0.03530
Br1521     Br  0.31216408  0.58344969  0.67845615    -0.03230
H1522       H  0.24838466  0.57938211  0.65620183     0.08930
H1523       H  0.24626503  0.57362202  0.80384827     0.06950
Br1524     Br  0.18252224  0.57413020  0.78246598    -0.03660
C1525       C  0.19600709  0.61485942  0.49745387    -0.10290
C1526       C  0.16761204  0.60321332  0.51064305     0.05900
C1527       C  0.14341548  0.60062629  0.48224748    -0.04060
C1528       C  0.14822222  0.60791233  0.44281459    -0.08510
C1529       C  0.17416859  0.62389972  0.43087257     0.05020
C1530       C  0.19889400  0.62659532  0.45822456    -0.03530
Br1531     Br  0.23638627  0.64582003  0.44320928    -0.03230
H1532       H  0.21503576  0.61682742  0.51828477     0.08930
H1533       H  0.12887298  0.60509353  0.42264955     0.06950
Br1534     Br  0.10059643  0.59420161  0.49282531    -0.03660
C1535       C  0.14791881  0.99312538  0.45537722    -0.10290
C1536       C  0.11931044  0.98503607  0.43932911     0.05900
C1537       C  0.09252924  0.98944879  0.46228749    -0.04060
C1538       C  0.09482249  0.50303168  0.50011327    -0.08510
C1539       C  0.12368392  0.51067726  0.51612751     0.05020
C1540       C  0.15040272  0.50536511  0.49342231    -0.03530
Br1541     Br  0.19115258  0.51549789  0.51116978    -0.03230
H1542       H  0.16881854  0.98912916  0.43854697     0.08930
H1543       H  0.07413155  0.50754425  0.51710164     0.06950
Br1544     Br  0.05255648  0.97826723  0.44313970    -0.03660
C1545       C  0.15051940  0.92164969  0.68124419    -0.10290
C1546       C  0.12037682  0.91129265  0.67506433     0.05900
C1547       C  0.09617808  0.93234010  0.67269793    -0.04060
C1548       C  0.10254136  0.96315290  0.67460896    -0.08510
C1549       C  0.13296066  0.97368380  0.67789562     0.05020
C1550       C  0.15704050  0.95249115  0.68224382    -0.03530
Br1551     Br  0.19926305  0.96407111  0.68922797    -0.03230
H1552       H  0.16935811  0.90567098  0.68309471     0.08930
H1553       H  0.08367212  0.97895729  0.67134594     0.06950
Br1554     Br  0.05410063  0.92011371  0.66644296    -0.03660
C1555       C  0.14591862  0.67213421  0.68375053    -0.10290
C1556       C  0.11825486  0.66087972  0.66769147     0.05900
C1557       C  0.09504151  0.68139691  0.65609909    -0.04060
C1558       C  0.10035223  0.71232867  0.65899806    -0.08510
C1559       C  0.12863264  0.72345423  0.67284376     0.05020
C1560       C  0.15136408  0.70311643  0.68594141    -0.03530
Br1561     Br  0.19017626  0.71660081  0.70676657    -0.03230
H1562       H  0.16401767  0.65677399  0.69286799     0.08930
H1563       H  0.08280995  0.72778512  0.64848382     0.06950
Br1564     Br  0.05563450  0.66875631  0.63615754    -0.03660
C1565       C  0.76701917  0.78202356  0.73628413    -0.10290
C1566       C  0.76894123  0.79931394  0.70146099     0.05900
C1567       C  0.74308927  0.81632419  0.68927560    -0.04060
C1568       C  0.71621722  0.81587054  0.71191668    -0.08510
C1569       C  0.71432915  0.79879528  0.74694993     0.05020
C1570       C  0.73982594  0.78105429  0.75853699    -0.03530
Br1571     Br  0.73851205  0.75403276  0.80310617    -0.03230
H1572       H  0.78674030  0.76925890  0.74631523     0.08930
H1573       H  0.69708239  0.83002364  0.70288804     0.06950
Br1574     Br  0.74376719  0.84333148  0.64469945    -0.03660
C1575       C  0.80443537  0.72551428  0.46490232    -0.10290
C1576       C  0.81851857  0.74229465  0.43423426     0.05900
C1577       C  0.83058865  0.77090212  0.44380802    -0.04060
C1578       C  0.83292996  0.77959325  0.48352642    -0.08510
C1579       C  0.82133281  0.76194367  0.51435669     0.05020
C1580       C  0.80569735  0.73531066  0.50493069    -0.03530
Br1581     Br  0.78792520  0.71104568  0.54583636    -0.03230
H1582       H  0.79477636  0.70362419  0.45840543     0.08930
H1583       H  0.84549293  0.79978353  0.49049331     0.06950
Br1584     Br  0.84670455  0.79876118  0.40521170    -0.03660
C1585       C  0.89804218  0.86967766  0.50369772    -0.10290
C1586       C  0.86985210  0.85721710  0.51559159     0.05900
C1587       C  0.84384322  0.86043486  0.49081425    -0.04060
C1588       C  0.84676387  0.87378265  0.45382012    -0.08510
C1589       C  0.87407296  0.88790395  0.44252093     0.05020
C1590       C  0.89998314  0.88612979  0.46793352    -0.03530
Br1591     Br  0.93824873  0.90475519  0.45454437    -0.03230
H1592       H  0.91817211  0.86731153  0.52263716     0.08930
H1593       H  0.82650921  0.87502435  0.43487033     0.06950
Br1594     Br  0.80307342  0.84798329  0.50544375    -0.03660
C1595       C  0.97942841  0.79192167  0.67549627    -0.10290
C1596       C  0.96106255  0.81315242  0.65545932     0.05900
C1597       C  0.97520710  0.83777547  0.63683834    -0.04060
C1598       C  0.00728596  0.83985500  0.63623591    -0.08510
C1599       C  0.02577699  0.81786274  0.65445018     0.05020
C1600       C  0.01165866  0.79411009  0.67507377    -0.03530
Br1601     Br  0.03534611  0.76264799  0.69940692    -0.03230
H1602       H  0.96877766  0.77269621  0.68951213     0.08930
H1603       H  0.01790569  0.85849376  0.62083364     0.06950
Br1604     Br  0.95152505  0.86915269  0.61201537    -0.03660
C1605       C  0.74587514  0.55319422  0.68665872    -0.10290
C1606       C  0.77489839  0.55141209  0.70512638     0.05900
C1607       C  0.77604756  0.54622752  0.74692754    -0.04060
C1608       C  0.74880724  0.54536070  0.76916646    -0.08510
C1609       C  0.71982814  0.54904309  0.75101235     0.05020
C1610       C  0.71862728  0.55187135  0.70876250    -0.03530
Br1611     Br  0.68115228  0.55481654  0.67817064    -0.03230
H1612       H  0.74421161  0.55641198  0.65464673     0.08930
H1613       H  0.75047256  0.54237566  0.80121926     0.06950
Br1614     Br  0.81354290  0.53975601  0.77643642    -0.03660
C1615       C  0.80784074  0.98380213  0.51237518    -0.10290
C1616       C  0.81171618  0.51493525  0.51564284     0.05900
C1617       C  0.81095487  0.53218182  0.48022996    -0.04060
C1618       C  0.81355212  0.51777827  0.44295949    -0.08510
C1619       C  0.81370883  0.98627750  0.44001351     0.05020
C1620       C  0.80716403  0.96967420  0.47489240    -0.03530
Br1621     Br  0.79856769  0.92772784  0.47423189    -0.03230
H1622       H  0.80679099  0.97023875  0.53916984     0.08930
H1623       H  0.81687291  0.53122142  0.41640864     0.06950
Br1624     Br  0.80884275  0.57525739  0.48067908    -0.03660
C1625       C  0.88455698  0.61364979  0.44123467    -0.10290
C1626       C  0.88055263  0.64482328  0.44493751     0.05900
C1627       C  0.88014882  0.65776531  0.48355500    -0.04060
C1628       C  0.87958329  0.63920179  0.51714691    -0.08510
C1629       C  0.88090780  0.60777155  0.51337605     0.05020
C1630       C  0.88566086  0.59514388  0.47491482    -0.03530
Br1631     Br  0.89107708  0.55283728  0.46502047    -0.03230
H1632       H  0.88589766  0.60348051  0.41179084     0.08930
H1633       H  0.87695449  0.64943958  0.54638319     0.06950
Br1634     Br  0.87808521  0.70028775  0.49298664    -0.03660
C1635       C  0.84018399  0.94818155  0.64510196    -0.10290
C1636       C  0.86493549  0.96021243  0.66622407     0.05900
C1637       C  0.88322449  0.94150397  0.69030027    -0.04060
C1638       C  0.87701339  0.91060272  0.69184197    -0.08510
C1639       C  0.85263847  0.89803622  0.66948868     0.05020
C1640       C  0.83377109  0.91761041  0.64627326    -0.03530
Br1641     Br  0.80005864  0.90546515  0.61243443    -0.03230
H1642       H  0.82623671  0.96270681  0.62630922     0.08930
H1643       H  0.89186035  0.89629679  0.70964443     0.06950
Br1644     Br  0.91753123  0.95702402  0.71979122    -0.03660
C1645       C  0.84964326  0.66554119  0.69612483    -0.10290
C1646       C  0.86927165  0.64710984  0.67380437     0.05900
C1647       C  0.89385028  0.65999719  0.65288006    -0.04060
C1648       C  0.89710953  0.69120654  0.65219299    -0.08510
C1649       C  0.87628914  0.71016892  0.67244305     0.05020
C1650       C  0.85325658  0.69678659  0.69633137    -0.03530
Br1651     Br  0.82450740  0.71911627  0.72801549    -0.03230
H1652       H  0.83077663  0.65560825  0.71245870     0.08930
H1653       H  0.91525479  0.70067981  0.63412072     0.06950
Br1654     Br  0.92155685  0.63615808  0.62123478    -0.03660
C1655       C  0.97844148  0.57095820  0.61576099    -0.10290
C1656       C  0.96396820  0.55599574  0.64720055     0.05900
C1657       C  0.98182264  0.54737080  0.68080238    -0.04060
C1658       C  0.01379769  0.55209485  0.68088491    -0.08510
C1659       C  0.02826555  0.56557590  0.64815849     0.05020
C1660       C  0.00992448  0.57610432  0.61606074    -0.03530
Br1661     Br  0.02557262  0.59873158  0.57173241    -0.03230
H1662       H  0.96510839  0.57887888  0.59042717     0.08930
H1663       H  0.02749740  0.54423426  0.70589590     0.06950
Br1664     Br  0.96465822  0.52773362  0.72642265    -0.03660
loop_ 
_geom_bond_atom_site_label_1 
_geom_bond_atom_site_label_2 
_geom_bond_distance 
_geom_bond_site_symmetry_2 
_ccdc_geom_bond_type 
O1           C16   1.265       .  A
O1           Al9   1.899       .  S
C2           O12   1.261   1_565  A
C2            O3   1.265       .  A
C2         C1636   1.461       .  S
O3           Al5   1.917   1_565  S
O4            C6   1.260       .  A
O4           Al5   1.899       .  S
Al5          O13   1.879       .  S
Al5          O15   1.920       .  S
Al5          O14   1.769       .  S
C6           O19   1.262       .  A
C6          C784   1.484       .  S
O7           C17   1.267       .  A
O7           Al9   1.911       .  S
O8           C21   1.260       .  A
O8          Al18   1.896       .  S
Al9          O22   1.926       .  S
Al9          O19   1.931       .  S
Al9          O14   1.780       .  S
O10          C17   1.264       .  A
O10         Al18   1.925       .  S
O11          C20   1.259       .  A
O11         Al18   1.921       .  S
O12         Al18   1.890       .  S
O13          C20   1.258       .  A
O14         Al18   1.786       .  S
O15          C16   1.264       .  A
C16         C797   1.485       .  S
C17         C774   1.494       .  S
C20         C824   1.482       .  S
C21          O22   1.265       .  A
C21         C814   1.466       .  S
O23          C38   1.259       .  A
O23         Al31   1.885       .  S
C24          O34   1.265       .  A
C24          O25   1.270       .  A
C24         C817   1.488       .  S
O25         Al27   1.923       .  S
O26          C28   1.258       .  A
O26         Al27   1.908       .  S
Al27         O35   1.884       .  S
Al27         O37   1.930       .  S
Al27         O36   1.770       .  S
C28          O41   1.258       .  A
C28         C747   1.469       .  S
O29          C39   1.261       .  A
O29         Al31   1.887       .  S
O30          C43   1.268       .  A
O30         Al40   1.924       .  S
Al31         O44   1.909       .  S
Al31         O41   1.906       .  S
Al31         O36   1.772       .  S
O32          C39   1.269       .  A
O32         Al40   1.946       .  S
O33          C42   1.262       .  A
O33         Al40   1.936       .  S
O34         Al40   1.900       .  S
O35          C42   1.255       .  A
O36         Al40   1.781       .  S
O37          C38   1.266       .  A
C38         C754   1.465       .  S
C39         C734   1.476       .  S
C42         C764   1.474       .  S
C43          O44   1.259       .  A
C43         C807   1.487       .  S
O45          C60   1.257       .  A
O45         Al53   1.885       .  S
C46          O56   1.265       .  A
C46          O47   1.270       .  A
C46         C724   1.482       .  S
O47         Al49   1.935       .  S
O48          C50   1.254       .  A
O48         Al49   1.883       .  S
Al49         O57   1.857       .  S
Al49         O59   1.914       .  S
Al49         O58   1.751       .  S
C50          O63   1.268       .  A
C50         C694   1.490       .  S
O51          C61   1.265       .  A
O51         Al53   1.901       .  S
O52         C897   1.267       .  A
O52         Al62   1.899       .  S
Al53         O66   1.944       .  S
Al53         O63   1.964       .  S
Al53         O58   1.779       .  S
O54          C61   1.265       .  A
O54         Al62   1.928       .  S
O55          C64   1.264       .  A
O55         Al62   1.956       .  S
O56         Al62   1.896       .  S
O57          C64   1.246       .  A
O58         Al62   1.780       .  S
O59          C60   1.260       .  A
C60         C707   1.465       .  S
C61         C684   1.490       .  S
C64         C827   1.478       .  S
C65         O884   1.267       .  A
C65         O898   1.272       .  A
C65         C717   1.486       .  S
O66         C897   1.272       .  A
O67          C82   1.261       .  A
O67         Al75   1.868       .  S
C68          O78   1.263       .  A
C68          O69   1.266       .  A
C68         C714   1.478       .  S
O69         Al71   1.927       .  S
O70          C72   1.253       .  A
O70         Al71   1.881       .  S
Al71         O79   1.881       .  S
Al71         O81   1.969       .  S
Al71         O80   1.755       .  S
C72          O85   1.264       .  A
C72         C664   1.482       .  S
O73          C83   1.262       .  A
O73         Al75   1.891       .  S
O74          C87   1.263       .  A
O74         Al84   1.900       .  S
Al75         O88   1.937       .  S
Al75         O85   1.969       .  S
Al75         O80   1.781       .  S
O76          C83   1.271       .  A
O76         Al84   1.933       .  S
O77          C86   1.267       .  A
O77         Al84   1.943       .  S
O78         Al84   1.904       .  S
O79          C86   1.259       .  A
O80         Al84   1.767       .  S
O81          C82   1.273       .  A
C82         C674   1.493       .  S
C83         C654   1.486       .  S
C86         C767   1.475       .  S
C87          O88   1.268       .  A
C87         C727   1.474       .  S
O89         C104   1.263       .  A
O89         Al97   1.896       .  S
C90         O100   1.261       .  A
C90          O91   1.265       .  A
C90         C624   1.472       .  S
O91         Al93   1.922       .  S
O92          C94   1.254       .  A
O92         Al93   1.869       .  S
Al93        O101   1.867       .  S
Al93        O103   1.928       .  S
Al93        O102   1.762       .  S
C94         O107   1.264       .  A
C94         C744   1.482       .  S
O95         C105   1.263       .  A
O95         Al97   1.901       .  S
O96         C109   1.263       .  A
O96        Al106   1.896       .  S
Al97        O110   1.917       .  S
Al97        O107   1.939       .  S
Al97        O102   1.777       .  S
O98         C105   1.268       .  A
O98        Al106   1.930       .  S
O99         C108   1.267       .  A
O99        Al106   1.950       .  S
O100       Al106   1.899       .  S
O101        C108   1.257       .  A
O102       Al106   1.776       .  S
O103        C104   1.264       .  A
C104        C794   1.479       .  S
C105        C614   1.487       .  S
C108        C644   1.485       .  S
C109        O110   1.266       .  A
C109        C634   1.472       .  S
O111        C126   1.259       .  A
O111       Al119   1.869       .  S
C112        O122   1.263       .  A
C112        O113   1.267       .  A
C112       C1469   1.466       .  S
O113       Al115   1.918       .  S
O114        C116   1.260       .  A
O114       Al115   1.905       .  S
Al115       O123   1.896       .  S
Al115       O125   1.939       .  S
Al115       O124   1.777       .  S
C116        O129   1.262       .  A
C116        C787   1.492       .  S
O117        C127   1.264       .  A
O117       Al119   1.899       .  S
O118        C131   1.264       .  A
O118       Al128   1.904       .  S
Al119       O132   1.928       .  S
Al119       O129   1.937       .  S
Al119       O124   1.773       .  S
O120        C127   1.263       .  A
O120       Al128   1.919       .  S
O121        C130   1.258       .  A
O121       Al128   1.909       .  S
O122       Al128   1.888       .  S
O123        C130   1.260       .  A
O124       Al128   1.779       .  S
O125        C126   1.267       .  A
C126        C757   1.472       .  S
C127        C597   1.482       .  S
C130        C604   1.470       .  S
C131        O132   1.265       .  A
C131        C627   1.479       .  S
O133        C148   1.258       .  A
O133       Al141   1.889       .  S
C134        O144   1.262       .  A
C134        O135   1.262       .  A
C134        C584   1.477       .  S
O135       Al137   1.922       .  S
O136        C138   1.254       .  A
O136       Al137   1.884       .  S
Al137       O145   1.874       .  S
Al137       O147   1.958       .  S
Al137       O146   1.757       .  S
C138        O151   1.268       .  A
C138        C697   1.491       .  S
O139        C149   1.267       .  A
O139       Al141   1.904       .  S
O140        C153   1.266       .  A
O140       Al150   1.909       .  S
Al141       O154   1.937       .  S
Al141       O151   1.979       .  S
Al141       O146   1.778       .  S
O142        C149   1.263       .  A
O142       Al150   1.912       .  S
O143        C152   1.269       .  A
O143       Al150   1.943       .  S
O144       Al150   1.918       .  S
O145        C152   1.259       .  A
O146       Al150   1.768       .  S
O147        C148   1.270       .  A
C148        C677   1.481       .  S
C149        C564   1.487       .  S
C152        C647   1.481       .  S
C153        O154   1.269       .  A
C153        C574   1.489       .  S
O155        C170   1.257       .  A
O155       Al163   1.878       .  S
C156        O166   1.265       .  A
C156        O157   1.269       .  A
C156        C577   1.478       .  S
O157       Al159   1.934       .  S
O158        C160   1.254       .  A
O158       Al159   1.869       .  S
Al159       O167   1.860       .  S
Al159       O169   1.919       .  S
Al159       O168   1.756       .  S
C160        O173   1.271       .  A
C160        C667   1.485       .  S
O161        C171   1.262       .  A
O161       Al163   1.909       .  S
O162       C1007   1.269       .  A
O162       Al172   1.907       .  S
Al163       O176   1.943       .  S
Al163       O173   1.970       .  S
Al163       O168   1.775       .  S
O164        C171   1.266       .  A
O164       Al172   1.913       .  S
O165        C174   1.265       .  A
O165       Al172   1.953       .  S
O166       Al172   1.909       .  S
O167        C174   1.250       .  A
O168       Al172   1.780       .  S
O169        C170   1.259       .  A
C170        C704   1.469       .  S
C171        C554   1.492       .  S
C174        C607   1.470       .  S
C175        O994   1.269       .  A
C175       O1008   1.273       .  A
C175        C587   1.494   1_565  S
O176       C1007   1.273       .  A
O177        C192   1.255       .  A
O177       Al185   1.868       .  S
C178        O188   1.263   1_565  A
C178        O179   1.272   1_565  A
C178       C1356   1.487       .  S
O179       Al181   1.938       .  S
O180        C182   1.257       .  A
O180       Al181   1.893       .  S
Al181       O189   1.883       .  S
Al181       O191   1.939       .  S
Al181       O190   1.770       .  S
C182        O195   1.265       .  A
C182        C504   1.488       .  S
O183        C193   1.268       .  A
O183       Al185   1.912       .  S
O184        C197   1.266       .  A
O184       Al194   1.907       .  S
Al185       O198   1.927       .  S
Al185       O195   1.950       .  S
Al185       O190   1.776       .  S
O186        C193   1.264       .  A
O186       Al194   1.924       .  S
O187        C196   1.260       .  A
O187       Al194   1.928       .  S
O188       Al194   1.889       .  S
O189        C196   1.254       .  A
O190       Al194   1.780       .  S
O191        C192   1.270       .  A
C192        C517   1.479       .  S
C193        C777   1.495       .  S
C196        C544   1.479       .  S
C197        O198   1.266       .  A
C197        C534   1.489       .  S
O199        C214   1.258       .  A
O199       Al207   1.878       .  S
C200        O210   1.264       .  A
C200        O201   1.270       .  A
C200        C537   1.470       .  S
O201       Al203   1.935       .  S
O202        C204   1.254       .  A
O202       Al203   1.894       .  S
Al203       O211   1.866       .  S
Al203       O213   1.926       .  S
Al203       O212   1.765       .  S
C204        O217   1.261       .  A
C204        C474   1.479       .  S
O205        C215   1.260       .  A
O205       Al207   1.891       .  S
O206        C219   1.265       .  A
O206       Al216   1.903       .  S
Al207       O220   1.938       .  S
Al207       O217   1.935       .  S
Al207       O212   1.781       .  S
O208        C215   1.267       .  A
O208       Al216   1.930       .  S
O209        C218   1.261       .  A
O209       Al216   1.934       .  S
O210       Al216   1.894       .  S
O211        C218   1.251       .  A
O212       Al216   1.779       .  S
O213        C214   1.267       .  A
C214        C484   1.466       .  S
C215        C737   1.477       .  S
C218        C497   1.472       .  S
C219        O220   1.270       .  A
C219        C527   1.474       .  S
O221        C236   1.260       .  A
O221       Al229   1.875       .  S
C222        O232   1.263       .  A
C222        O223   1.268       .  A
C222        C467   1.474       .  S
O223       Al225   1.925       .  S
O224        C226   1.257       .  A
O224       Al225   1.897       .  S
Al225       O233   1.880       .  S
Al225       O235   1.940       .  S
Al225       O234   1.770       .  S
C226        O239   1.260       .  A
C226        C437   1.477       .  S
O227        C237   1.265       .  A
O227       Al229   1.894       .  S
O228       C1073   1.262       .  A
O228       Al238   1.906       .  S
Al229       O242   1.922       .  S
Al229       O239   1.924       .  S
Al229       O234   1.777       .  S
O230        C237   1.268       .  A
O230       Al238   1.938       .  S
O231        C240   1.262       .  A
O231       Al238   1.929       .  S
O232       Al238   1.891       .  S
O233        C240   1.257       .  A
O234       Al238   1.777       .  S
O235        C236   1.269       .  A
C236        C444   1.463       .  S
C237        C687   1.490       .  S
C240        C547   1.477       .  S
C241       O1060   1.262       .  A
C241       O1074   1.263       .  A
C241        C454   1.470       .  S
O242       C1073   1.263       .  A
O243        C258   1.259       .  A
O243       Al251   1.878       .  S
C244        O254   1.261       .  A
C244        O245   1.269       .  A
C244        C457   1.480       .  S
O245       Al247   1.928       .  S
O246        C248   1.258       .  A
O246       Al247   1.894       .  S
Al247       O255   1.881       .  S
Al247       O257   1.939       .  S
Al247       O256   1.768       .  S
C248        O261   1.262       .  A
C248        C417   1.475       .  S
O249        C259   1.260       .  A
O249       Al251   1.886       .  S
O250        C263   1.262       .  A
O250       Al260   1.900       .  S
Al251       O264   1.924       .  S
Al251       O261   1.930       .  S
Al251       O256   1.773       .  S
O252        C259   1.269       .  A
O252       Al260   1.931       .  S
O253        C262   1.262       .  A
O253       Al260   1.925       .  S
O254       Al260   1.887       .  S
O255        C262   1.257       .  A
O256       Al260   1.778       .  S
O257        C258   1.268       .  A
C258        C424   1.469       .  S
C259        C657   1.487       .  S
C262        C494   1.474       .  S
C263        O264   1.264       .  A
C263        C464   1.473       .  S
O265        C280   1.259       .  A
O265       Al273   1.891       .  S
C266        O276   1.264       .  A
C266        O267   1.262       .  A
C266        C384   1.482       .  S
O267       Al269   1.916       .  S
O268        C270   1.256       .  A
O268       Al269   1.882       .  S
Al269       O277   1.871       .  S
Al269       O279   1.922       .  S
Al269       O278   1.761       .  S
C270        O283   1.268       .  A
C270        C477   1.487       .  S
O271        C281   1.262       .  A
O271       Al273   1.895       .  S
O272        C285   1.263       .  A
O272       Al282   1.898       .  S
Al273       O286   1.925       .  S
Al273       O283   1.952       .  S
Al273       O278   1.777       .  S
O274        C281   1.268       .  A
O274       Al282   1.932       .  S
O275        C284   1.268       .  A
O275       Al282   1.949       .  S
O276       Al282   1.914       .  S
O277        C284   1.258       .  A
O278       Al282   1.773       .  S
O279        C280   1.261       .  A
C280        C514   1.458       .  S
C281        C617   1.482       .  S
C284        C407   1.474       .  S
C285        O286   1.266       .  A
C285        C394   1.475       .  S
O287        C302   1.259       .  A
O287       Al295   1.874       .  S
C288        O298   1.262       .  A
C288        O289   1.268       .  A
C288       C1229   1.473       .  S
O289       Al291   1.930       .  S
O290        C292   1.259       .  A
O290       Al291   1.890       .  S
Al291       O299   1.877       .  S
Al291       O301   1.930       .  S
Al291       O300   1.771       .  S
C292        O305   1.266       .  A
C292        C507   1.491       .  S
O293        C303   1.265       .  A
O293       Al295   1.903       .  S
O294        C307   1.264       .  A
O294       Al304   1.901       .  S
Al295       O308   1.936       .  S
Al295       O305   1.952       .  S
Al295       O300   1.775       .  S
O296        C303   1.262       .  A
O296       Al304   1.913       .  S
O297        C306   1.261       .  A
O297       Al304   1.928       .  S
O298       Al304   1.891       .  S
O299        C306   1.256       .  A
O300       Al304   1.778       .  S
O301        C302   1.265       .  A
C302        C487   1.471       .  S
C303        C594   1.486       .  S
C306        C374   1.479       .  S
C307        O308   1.268       .  A
C307        C387   1.479       .  S
O309        C324   1.258       .  A
O309       Al317   1.873       .  S
C310        O320   1.263       .  A
C310        O311   1.267       .  A
C310        C364   1.470       .  S
O311       Al313   1.923       .  S
O312        C314   1.257       .  A
O312       Al313   1.890       .  S
Al313       O321   1.881       .  S
Al313       O323   1.933       .  S
Al313       O322   1.771       .  S
C314        O327   1.263       .  A
C314        C434   1.481       .  S
O315        C325   1.263       .  A
O315       Al317   1.894       .  S
O316        C329   1.265       .  A
O316       Al326   1.906       .  S
Al317       O330   1.918       .  S
Al317       O327   1.930       .  S
Al317       O322   1.773       .  S
O318        C325   1.265       .  A
O318       Al326   1.925       .  S
O319        C328   1.262       .  A
O319       Al326   1.926       .  S
O320       Al326   1.894       .  S
O321        C328   1.257       .  A
O322       Al326   1.778       .  S
O323        C324   1.266       .  A
C324        C427   1.460       .  S
C325        C567   1.480       .  S
C328        C404   1.473       .  S
C329        O330   1.265       .  A
C329        C357   1.477       .  S
O331        C346   1.257       .  A
O331       Al339   1.874       .  S
C332        O342   1.262       .  A
C332        O333   1.268       .  A
C332        C354   1.469       .  S
O333       Al335   1.932       .  S
O334        C336   1.256       .  A
O334       Al335   1.887       .  S
Al335       O343   1.873       .  S
Al335       O345   1.945       .  S
Al335       O344   1.768       .  S
C336        O349   1.264       .  A
C336        C414   1.481       .  S
O337        C347   1.257       .  A
O337       Al339   1.881       .  S
O338        C351   1.262       .  A
O338       Al348   1.897       .  S
Al339       O352   1.930       .  S
Al339       O349   1.937       .  S
Al339       O344   1.767       .  S
O340        C347   1.270       .  A
O340       Al348   1.950       .  S
O341        C350   1.266       .  A
O341       Al348   1.942       .  S
O342       Al348   1.886       .  S
O343        C350   1.256       .  A
O344       Al348   1.779       .  S
O345        C346   1.269       .  A
C346        C447   1.469       .  S
C347        C557   1.488       .  S
C350        C377   1.476       .  S
C351        O352   1.268       .  A
C351       C1199   1.480       .  S
C353        C354   1.400       .  A
C353        C358   1.396       .  A
C353        H360   1.084       .  S
C354        C355   1.407       .  A
C355        C356   1.400       .  A
C355       Br362   1.919       .  S
C356        C357   1.406       .  A
C356        H361   1.084       .  S
C357        C358   1.413       .  A
C358       Br359   1.923       .  S
C363        C364   1.400       .  A
C363        C368   1.398       .  A
C363        H370   1.084       .  S
C364        C365   1.409       .  A
C365        C366   1.398       .  A
C365       Br372   1.920       .  S
C366        C367   1.405       .  A
C366        H371   1.084       .  S
C367       C1183   1.480   1_545  S
C367        C368   1.415       .  A
C368       Br369   1.919       .  S
C373        C374   1.402       .  A
C373        C378   1.391       .  A
C373        H380   1.083       .  S
C374        C375   1.414       .  A
C375        C376   1.404       .  A
C375       Br382   1.919       .  S
C376        C377   1.404       .  A
C376        H381   1.083       .  S
C377        C378   1.411       .  A
C378       Br379   1.922       .  S
C383        C384   1.406       .  A
C383        C388   1.402       .  A
C383        H390   1.084       .  S
C384        C385   1.414       .  A
C385        C386   1.399       .  A
C385       Br392   1.921       .  S
C386        C387   1.402       .  A
C386        H391   1.084       .  S
C387        C388   1.411       .  A
C388       Br389   1.920       .  S
C393        C394   1.405       .  A
C393        C398   1.400       .  A
C393        H400   1.084       .  S
C394        C395   1.410       .  A
C395        C396   1.399       .  A
C395       Br402   1.920       .  S
C396        C397   1.404       .  A
C396        H401   1.084       .  S
C397       C1120   1.473       .  S
C397        C398   1.408       .  A
C398       Br399   1.919       .  S
C403        C404   1.405       .  A
C403        C408   1.404       .  A
C403        H410   1.083       .  S
C404        C405   1.409       .  A
C405        C406   1.392       .  A
C405       Br412   1.922       .  S
C406        C407   1.401       .  A
C406        H411   1.083       .  S
C407        C408   1.410       .  A
C408       Br409   1.917       .  S
C413        C414   1.407   1_556  A
C413        C418   1.399       .  A
C413        H420   1.079       .  S
C414        C415   1.411       .  A
C415        C416   1.400   1_554  A
C415       Br422   1.922       .  S
C416        C417   1.405       .  A
C416        H421   1.083       .  S
C417        C418   1.405       .  A
C418       Br419   1.919       .  S
C423        C424   1.408       .  A
C423        C428   1.406       .  A
C423        H430   1.083       .  S
C424        C425   1.412       .  A
C425        C426   1.384       .  A
C425       Br432   1.922       .  S
C426        C427   1.394   1_556  A
C426        H431   1.083   1_556  S
C427        C428   1.404   1_554  A
C428       Br429   1.916   1_556  S
C433        C434   1.407   1_556  A
C433        C438   1.401       .  A
C433        H440   1.080       .  S
C434        C435   1.410       .  A
C435        C436   1.399   1_554  A
C435       Br442   1.922       .  S
C436        C437   1.405       .  A
C436        H441   1.080       .  S
C437        C438   1.406       .  A
C438       Br439   1.919       .  S
C443        C444   1.396       .  A
C443       C1280   1.384   1_545  A
C443        H450   1.084       .  S
C444        C445   1.406       .  A
C445       C1278   1.407   1_545  A
C445       Br452   1.915       .  S
C446        C447   1.407   1_556  A
C446       C1277   1.407       .  A
C446        H451   1.083   1_556  S
C447        C448   1.411   1_554  A
C448       C1275   1.384       .  A
C448       Br449   1.921   1_556  S
C453        C454   1.401       .  A
C453        C458   1.399       .  A
C453        H460   1.084       .  S
C454        C455   1.408       .  A
C455        C456   1.397       .  A
C455       Br462   1.919       .  S
C456        C457   1.405       .  A
C456        H461   1.084       .  S
C457        C458   1.415       .  A
C458       Br459   1.922       .  S
C463        C464   1.404       .  A
C463        C468   1.399       .  A
C463        H470   1.084       .  S
C464        C465   1.409       .  A
C465        C466   1.399       .  A
C465       Br472   1.920       .  S
C466        C467   1.404       .  A
C466        H471   1.084       .  S
C467        C468   1.409       .  A
C468       Br469   1.921       .  S
C473        C474   1.395       .  A
C473        C478   1.379   1_556  A
C473        H480   1.075       .  S
C474        C475   1.404       .  A
C475        C476   1.414       .  A
C475       Br482   1.913       .  S
C476        C477   1.416   1_556  A
C476        H481   1.084   1_556  S
C477        C478   1.415       .  A
C478       Br479   1.932       .  S
C483        C484   1.404       .  A
C483        C488   1.407       .  A
C483        H490   1.083       .  S
C484        C485   1.409       .  A
C485        C486   1.383   1_556  A
C485       Br492   1.918       .  S
C486        C487   1.397       .  A
C486        H491   1.084       .  S
C487        C488   1.411   1_554  A
C488       Br489   1.916   1_556  S
C493        C494   1.406       .  A
C493        C498   1.403       .  A
C493        H500   1.083       .  S
C494        C495   1.409       .  A
C495        C496   1.392       .  A
C495       Br502   1.922       .  S
C496        C497   1.403       .  A
C496        H501   1.084       .  S
C497        C498   1.408       .  A
C498       Br499   1.918       .  S
C503        C508   1.406       .  A
C503       C1336   1.404       .  A
C503        H510   1.084       .  S
C504        C505   1.413       .  A
C504       C1335   1.404   1_545  A
C505        C506   1.401   1_556  A
C505       Br512   1.909       .  S
C506       C1339   1.403   1_545  A
C506        H511   1.084       .  S
C507        C508   1.415   1_554  A
C507       C1338   1.403       .  A
C508       Br509   1.911       .  S
C513        C514   1.394   1_556  A
C513        C518   1.389       .  A
C513        H520   1.085       .  S
C514        C515   1.401   1_554  A
C515        C516   1.401       .  A
C515       Br522   1.913   1_556  S
C516        C517   1.408       .  A
C516        H521   1.083       .  S
C517        C518   1.420       .  A
C518       Br519   1.927       .  S
C523        C524   1.406       .  A
C523        C528   1.400       .  A
C523        H530   1.083       .  S
C524       C1010   1.487       .  S
C524        C525   1.418       .  A
C525        C526   1.401       .  A
C525       Br532   1.922       .  S
C526        C527   1.399       .  A
C526        H531   1.084       .  S
C527        C528   1.409       .  A
C528       Br529   1.921       .  S
C533        C534   1.411       .  A
C533        C538   1.402       .  A
C533        H540   1.083       .  S
C534        C535   1.419       .  A
C535        C536   1.398       .  A
C535       Br542   1.924       .  S
C536        C537   1.399       .  A
C536        H541   1.084       .  S
C537        C538   1.403       .  A
C538       Br539   1.917       .  S
C543        C544   1.406       .  A
C543        C548   1.404       .  A
C543        H550   1.083       .  S
C544        C545   1.410       .  A
C545        C546   1.395       .  A
C545       Br552   1.922       .  S
C546        C547   1.403       .  A
C546        H551   1.084       .  S
C547        C548   1.411       .  A
C548      Br1381   1.918       .  S
Br549      C1380   1.918       .  S
C553        C554   1.406       .  A
C553        C558   1.392       .  A
C553        H560   1.083       .  S
C554        C555   1.416       .  A
C555        C556   1.405       .  A
C555       Br562   1.920       .  S
C556        C557   1.407       .  A
C556        H561   1.083       .  S
C557        C558   1.416       .  A
C558       Br559   1.926       .  S
C563        C564   1.406       .  A
C563        C568   1.399       .  A
C563        H570   1.083       .  S
C564        C565   1.420       .  A
C565        C566   1.395       .  A
C565       Br572   1.925       .  S
C566        C567   1.401       .  A
C566        H571   1.084       .  S
C567        C568   1.413       .  A
C568       Br569   1.921       .  S
C573        C574   1.412       .  A
C573        C578   1.410       .  A
C573        H580   1.083       .  S
C574        C575   1.415       .  A
C575        C576   1.392       .  A
C575       Br582   1.920       .  S
C576        C577   1.398       .  A
C576        H581   1.078       .  S
C577        C578   1.406       .  A
C578       Br579   1.915       .  S
C583        C584   1.402       .  A
C583        C588   1.403       .  A
C583        H590   1.084       .  S
C584        C585   1.405       .  A
C585        C586   1.403       .  A
C585       Br592   1.918       .  S
C586        C587   1.410       .  A
C586        H591   1.083       .  S
C587        C588   1.418       .  A
C588       Br589   1.922       .  S
C593        C594   1.405       .  A
C593        C598   1.398       .  A
C593        H600   1.083       .  S
C594        C595   1.419       .  A
C595        C596   1.396       .  A
C595       Br602   1.924       .  S
C596        C597   1.402       .  A
C596        H601   1.083       .  S
C597        C598   1.415       .  A
C598       Br599   1.922       .  S
C603        C604   1.400       .  A
C603        C608   1.394   1_655  A
C603        H610   1.084       .  S
C604        C605   1.410       .  A
C605        C606   1.402   1_655  A
C605       Br612   1.915       .  S
C606        C607   1.402       .  A
C606        H611   1.084       .  S
C607        C608   1.409       .  A
C608       Br609   1.921       .  S
C613        C614   1.406       .  A
C613        C618   1.398       .  A
C613        H620   1.083       .  S
C614        C615   1.414       .  A
C615        C616   1.403       .  A
C615       Br622   1.921       .  S
C616        C617   1.405       .  A
C616        H621   1.084       .  S
C617        C618   1.412       .  A
C618       Br619   1.922       .  S
C623        C624   1.403       .  A
C623        C628   1.400       .  A
C623        H630   1.084       .  S
C624        C625   1.407       .  A
C625        C626   1.398       .  A
C625       Br632   1.920       .  S
C626        C627   1.405       .  A
C626        H631   1.082       .  S
C627        C628   1.413       .  A
C628       Br629   1.921       .  S
C633        C634   1.404       .  A
C633        C638   1.395       .  A
C633        H640   1.084       .  S
C634        C635   1.412       .  A
C635        C636   1.397       .  A
C635       Br642   1.920       .  S
C636        C637   1.401       .  A
C636        H641   1.084       .  S
C637        C944   1.466       .  S
C637        C638   1.408       .  A
C638       Br639   1.921       .  S
C643        C644   1.406       .  A
C643        C648   1.391   1_655  A
C643        H650   1.084       .  S
C644        C645   1.413       .  A
C645        C646   1.405   1_655  A
C645       Br652   1.919       .  S
C646        C647   1.408       .  A
C646        H651   1.083       .  S
C647        C648   1.411       .  A
C648       Br649   1.925       .  S
C653        C654   1.406       .  A
C653        C658   1.397       .  A
C653        H660   1.083       .  S
C654        C655   1.415       .  A
C655        C656   1.397       .  A
C655       Br662   1.923       .  S
C656        C657   1.406       .  A
C656        H661   1.083       .  S
C657        C658   1.416       .  A
C658       Br659   1.924       .  S
C663        C664   1.393       .  A
C663        C668   1.373       .  A
C663        H670   1.082       .  S
C664        C665   1.411       .  A
C665        C666   1.420       .  A
C665       Br672   1.913       .  S
C666        C667   1.413       .  A
C666        H671   1.083       .  S
C667        C668   1.416       .  A
C668       Br669   1.919       .  S
C673        C674   1.407       .  A
C673        C678   1.392       .  A
C673        H680   1.084       .  S
C674        C675   1.416       .  A
C675        C676   1.407       .  A
C675       Br682   1.915       .  S
C676        C677   1.406       .  A
C676        H681   1.084       .  S
C677        C678   1.403       .  A
C678       Br679   1.901       .  S
C683        C684   1.407       .  A
C683        C688   1.400       .  A
C683        H690   1.083       .  S
C684        C685   1.417       .  A
C685        C686   1.398       .  A
C685       Br692   1.924       .  S
C686        C687   1.406       .  A
C686        H691   1.083       .  S
C687        C688   1.416       .  A
C688       Br689   1.922       .  S
C693        C694   1.413       .  A
C693        C698   1.421       .  A
C693        H700   1.083       .  S
C694        C695   1.419       .  A
C695        C696   1.377       .  A
C695       Br702   1.918       .  S
C696        C697   1.396       .  A
C696        H701   1.083       .  S
C697        C698   1.413       .  A
C698       Br699   1.913       .  S
C703        C704   1.400       .  A
C703       C1540   1.386       .  A
C703        H710   1.084       .  S
C704        C705   1.410       .  A
C705       C1538   1.403       .  A
C705       Br712   1.915       .  S
C706        C707   1.404       .  A
C706       C1537   1.403   1_545  A
C706        H711   1.083       .  S
C707        C708   1.409       .  A
C708       C1535   1.386   1_545  A
C708       Br709   1.920       .  S
C713        C714   1.404       .  A
C713        C718   1.402       .  A
C713        H720   1.084       .  S
C714        C715   1.408       .  A
C715        C716   1.401       .  A
C715       Br722   1.920       .  S
C716        C717   1.408       .  A
C716        H721   1.084       .  S
C717        C718   1.413       .  A
C718       Br719   1.921       .  S
C723        C724   1.407       .  A
C723        C728   1.401       .  A
C723        H730   1.084       .  S
C724        C725   1.412       .  A
C725        C726   1.399       .  A
C725       Br732   1.920       .  S
C726        C727   1.403       .  A
C726        H731   1.083       .  S
C727        C728   1.407       .  A
C728       Br729   1.919       .  S
C733        C734   1.402       .  A
C733        C738   1.400       .  A
C733        H740   1.079       .  S
C734        C735   1.412       .  A
C735        C736   1.395       .  A
C735       Br742   1.920       .  S
C736        C737   1.402       .  A
C736        H741   1.084       .  S
C737        C738   1.412       .  A
C738       Br739   1.921       .  S
C743        C744   1.414       .  A
C743        C748   1.407       .  A
C743        H750   1.083       .  S
C744        C745   1.414       .  A
C745        C746   1.386       .  A
C745       Br752   1.929       .  S
C746        C747   1.396       .  A
C746        H751   1.077       .  S
C747        C748   1.402       .  A
C748       Br749   1.914       .  S
C753        C754   1.406       .  A
C753        C758   1.408       .  A
C753        H760   1.083       .  S
C754        C755   1.406       .  A
C755        C756   1.382       .  A
C755       Br762   1.924       .  S
C756        C757   1.399       .  A
C756        H761   1.084       .  S
C757        C758   1.410       .  A
C758       Br759   1.916       .  S
C763        C764   1.405       .  A
C763        C768   1.404   1_655  A
C763        H770   1.084       .  S
C764        C765   1.407       .  A
C765        C766   1.398   1_655  A
C765       Br772   1.921       .  S
C766        C767   1.403       .  A
C766        H771   1.084       .  S
C767        C768   1.409       .  A
C768       Br769   1.917       .  S
C773        C774   1.404       .  A
C773        C778   1.400       .  A
C773        H780   1.083       .  S
C774        C775   1.419       .  A
C775        C776   1.402       .  A
C775       Br782   1.923       .  S
C776        C777   1.405       .  A
C776        H781   1.083       .  S
C777        C778   1.420       .  A
C778       Br779   1.924       .  S
C783        C788   1.401       .  A
C783       C1616   1.400       .  A
C783        H790   1.084       .  S
C784        C785   1.414       .  A
C784       C1615   1.400   1_545  A
C785        C786   1.404       .  A
C785       Br792   1.918       .  S
C786       C1619   1.405   1_545  A
C786        H791   1.083       .  S
C787        C788   1.414       .  A
C787       C1618   1.405       .  A
C788       Br789   1.905       .  S
C793        C794   1.402       .  A
C793        C798   1.399       .  A
C793        H800   1.084       .  S
C794        C795   1.412       .  A
C795        C796   1.398       .  A
C795       Br802   1.919       .  S
C796        C797   1.405       .  A
C796        H801   1.084       .  S
C797        C798   1.418       .  A
C798       Br799   1.924       .  S
C803        C804   1.392       .  A
C803        C808   1.390       .  A
C803        H810   1.085       .  S
C804        C834   1.461       .  S
C804        C805   1.403       .  A
C805        C806   1.403       .  A
C805       Br812   1.914       .  S
C806        C807   1.410       .  A
C806        H811   1.083       .  S
C807        C808   1.424       .  A
C808       Br809   1.925       .  S
C813        C814   1.397       .  A
C813        C818   1.400       .  A
C813        H820   1.084       .  S
C814        C815   1.405       .  A
C815        C816   1.397       .  A
C815       Br822   1.920       .  S
C816        C817   1.409       .  A
C816        H821   1.083       .  S
C817        C818   1.418       .  A
C818       Br819   1.914       .  S
C823        C824   1.400       .  A
C823        C828   1.388   1_655  A
C823        H830   1.084       .  S
C824        C825   1.417       .  A
C825        C826   1.406   1_655  A
C825       Br832   1.917       .  S
C826        C827   1.403       .  A
C826        H831   1.083       .  S
C827        C828   1.415       .  A
C828       Br829   1.924       .  S
O833        C848   1.265       .  A
O833       Al841   1.899       .  S
C834        O844   1.261       .  A
C834        O835   1.265       .  A
O835       Al837   1.917       .  S
O836        C838   1.260       .  A
O836       Al837   1.899       .  S
Al837       O845   1.879       .  S
Al837       O847   1.920       .  S
Al837       O846   1.769       .  S
C838        O851   1.262       .  A
C838       C1616   1.484       .  S
O839        C849   1.267       .  A
O839       Al841   1.911       .  S
O840        C853   1.260       .  A
O840       Al850   1.896       .  S
Al841       O854   1.926       .  S
Al841       O851   1.931       .  S
Al841       O846   1.780       .  S
O842        C849   1.264       .  A
O842       Al850   1.925       .  S
O843        C852   1.259       .  A
O843       Al850   1.921       .  S
O844       Al850   1.890       .  S
O845        C852   1.258       .  A
O846       Al850   1.786       .  S
O847        C848   1.264       .  A
C848       C1629   1.485       .  S
C849       C1606   1.494       .  S
C852       C1656   1.482       .  S
C853        O854   1.265       .  A
C853       C1646   1.466       .  S
O855        C870   1.259       .  A
O855       Al863   1.885       .  S
C856        O866   1.265       .  A
C856        O857   1.270       .  A
C856       C1649   1.488       .  S
O857       Al859   1.923       .  S
O858        C860   1.258       .  A
O858       Al859   1.908       .  S
Al859       O867   1.884       .  S
Al859       O869   1.930       .  S
Al859       O868   1.770       .  S
C860        O873   1.258       .  A
C860       C1579   1.469       .  S
O861        C871   1.261       .  A
O861       Al863   1.887       .  S
O862        C875   1.268       .  A
O862       Al872   1.924       .  S
Al863       O876   1.909       .  S
Al863       O873   1.906       .  S
Al863       O868   1.772       .  S
O864        C871   1.269       .  A
O864       Al872   1.946       .  S
O865        C874   1.262       .  A
O865       Al872   1.936       .  S
O866       Al872   1.900       .  S
O867        C874   1.255       .  A
O868       Al872   1.781       .  S
O869        C870   1.266       .  A
C870       C1586   1.465       .  S
C871       C1566   1.476       .  S
C874       C1596   1.474       .  S
C875        O876   1.259       .  A
C875       C1639   1.487       .  S
O877        C892   1.257       .  A
O877       Al885   1.885       .  S
C878        O888   1.265       .  A
C878        O879   1.270       .  A
C878       C1556   1.482       .  S
O879       Al881   1.935       .  S
O880        C882   1.254       .  A
O880       Al881   1.883       .  S
Al881       O889   1.857       .  S
Al881       O891   1.914       .  S
Al881       O890   1.751       .  S
C882        O895   1.268       .  A
C882       C1526   1.490       .  S
O883        C893   1.265       .  A
O883       Al885   1.901       .  S
O884       Al894   1.899       .  S
Al885       O898   1.944       .  S
Al885       O895   1.964       .  S
Al885       O890   1.779       .  S
O886        C893   1.265       .  A
O886       Al894   1.928       .  S
O887        C896   1.264       .  A
O887       Al894   1.956       .  S
O888       Al894   1.896       .  S
O889        C896   1.246       .  A
O890       Al894   1.780       .  S
O891        C892   1.260       .  A
C892       C1539   1.465       .  S
C893       C1516   1.490       .  S
C896       C1659   1.478       .  S
C897       C1549   1.486   1_545  S
O899        C914   1.261       .  A
O899       Al907   1.868       .  S
C900        O910   1.263       .  A
C900        O901   1.266       .  A
C900       C1546   1.478       .  S
O901       Al903   1.927       .  S
O902        C904   1.253       .  A
O902       Al903   1.881       .  S
Al903       O911   1.881       .  S
Al903       O913   1.969       .  S
Al903       O912   1.755       .  S
C904        O917   1.264       .  A
C904       C1496   1.482       .  S
O905        C915   1.262       .  A
O905       Al907   1.891       .  S
O906        C919   1.263       .  A
O906       Al916   1.900       .  S
Al907       O920   1.937       .  S
Al907       O917   1.969       .  S
Al907       O912   1.781       .  S
O908        C915   1.271       .  A
O908       Al916   1.933       .  S
O909        C918   1.267       .  A
O909       Al916   1.943       .  S
O910       Al916   1.904       .  S
O911        C918   1.259       .  A
O912       Al916   1.767       .  S
O913        C914   1.273       .  A
C914       C1506   1.493       .  S
C915       C1486   1.486       .  S
C918       C1599   1.475       .  S
C919        O920   1.268       .  A
C919       C1559   1.474       .  S
O921        C936   1.263       .  A
O921       Al929   1.896       .  S
C922        O932   1.261       .  A
C922        O923   1.265       .  A
C922       C1456   1.472       .  S
O923       Al925   1.922       .  S
O924        C926   1.254       .  A
O924       Al925   1.869       .  S
Al925       O933   1.867       .  S
Al925       O935   1.928       .  S
Al925       O934   1.762       .  S
C926        O939   1.264       .  A
C926       C1576   1.482       .  S
O927        C937   1.263       .  A
O927       Al929   1.901       .  S
O928        C941   1.263       .  A
O928       Al938   1.896       .  S
Al929       O942   1.917       .  S
Al929       O939   1.939       .  S
Al929       O934   1.777       .  S
O930        C937   1.268       .  A
O930       Al938   1.930       .  S
O931        C940   1.267       .  A
O931       Al938   1.950       .  S
O932       Al938   1.899       .  S
O933        C940   1.257       .  A
O934       Al938   1.776       .  S
O935        C936   1.264       .  A
C936       C1626   1.479       .  S
C937       C1446   1.487       .  S
C940       C1476   1.485       .  S
C941        O942   1.266       .  A
C941       C1466   1.472       .  S
O943        C958   1.259       .  A
O943       Al951   1.869       .  S
C944        O954   1.263   1_545  A
C944        O945   1.267   1_545  A
O945       Al947   1.918       .  S
O946        C948   1.260       .  A
O946       Al947   1.905       .  S
Al947       O955   1.896       .  S
Al947       O957   1.939       .  S
Al947       O956   1.777       .  S
C948        O961   1.262       .  A
C948       C1619   1.492       .  S
O949        C959   1.264       .  A
O949       Al951   1.899       .  S
O950        C963   1.264       .  A
O950       Al960   1.904       .  S
Al951       O964   1.928       .  S
Al951       O961   1.937       .  S
Al951       O956   1.773       .  S
O952        C959   1.263       .  A
O952       Al960   1.919       .  S
O953        C962   1.258       .  A
O953       Al960   1.909       .  S
O954       Al960   1.888       .  S
O955        C962   1.260       .  A
O956       Al960   1.779       .  S
O957        C958   1.267       .  A
C958       C1589   1.472       .  S
C959       C1429   1.482       .  S
C962       C1436   1.470       .  S
C963        O964   1.265       .  A
C963       C1459   1.479       .  S
O965        C980   1.258       .  A
O965       Al973   1.889       .  S
C966        O976   1.262       .  A
C966        O967   1.262       .  A
C966       C1416   1.477       .  S
O967       Al969   1.922       .  S
O968        C970   1.254       .  A
O968       Al969   1.884       .  S
Al969       O977   1.874       .  S
Al969       O979   1.958       .  S
Al969       O978   1.757       .  S
C970        O983   1.268       .  A
C970       C1529   1.491       .  S
O971        C981   1.267       .  A
O971       Al973   1.904       .  S
O972        C985   1.266       .  A
O972       Al982   1.909       .  S
Al973       O986   1.937       .  S
Al973       O983   1.979       .  S
Al973       O978   1.778       .  S
O974        C981   1.263       .  A
O974       Al982   1.912       .  S
O975        C984   1.269       .  A
O975       Al982   1.943       .  S
O976       Al982   1.918       .  S
O977        C984   1.259       .  A
O978       Al982   1.768       .  S
O979        C980   1.270       .  A
C980       C1509   1.481       .  S
C981       C1396   1.487       .  S
C984       C1479   1.481       .  S
C985        O986   1.269       .  A
C985       C1406   1.489       .  S
O987       C1002   1.257       .  A
O987       Al995   1.878       .  S
C988        O998   1.265       .  A
C988        O989   1.269       .  A
C988       C1409   1.478       .  S
O989       Al991   1.934       .  S
O990        C992   1.254       .  A
O990       Al991   1.869       .  S
Al991       O999   1.860       .  S
Al991      O1001   1.919       .  S
Al991      O1000   1.756       .  S
C992       O1005   1.271       .  A
C992       C1499   1.485       .  S
O993       C1003   1.262       .  A
O993       Al995   1.909       .  S
O994      Al1004   1.907       .  S
Al995      O1008   1.943       .  S
Al995      O1005   1.970       .  S
Al995      O1000   1.775       .  S
O996       C1003   1.266       .  A
O996      Al1004   1.913       .  S
O997       C1006   1.265       .  A
O997      Al1004   1.953       .  S
O998      Al1004   1.909       .  S
O999       C1006   1.250       .  A
O1000     Al1004   1.780       .  S
O1001      C1002   1.259       .  A
C1002      C1536   1.469       .  S
C1003      C1386   1.492       .  S
C1006      C1439   1.470       .  S
C1007      C1419   1.494       .  S
O1009      C1024   1.255       .  A
O1009     Al1017   1.868       .  S
C1010      O1020   1.263       .  A
C1010      O1011   1.272       .  A
O1011     Al1013   1.938       .  S
O1012      C1014   1.257       .  A
O1012     Al1013   1.893       .  S
Al1013     O1021   1.883       .  S
Al1013     O1023   1.939       .  S
Al1013     O1022   1.770       .  S
C1014      O1027   1.265       .  A
C1014      C1336   1.488       .  S
O1015      C1025   1.268       .  A
O1015     Al1017   1.912       .  S
O1016      C1029   1.266       .  A
O1016     Al1026   1.907       .  S
Al1017     O1030   1.927       .  S
Al1017     O1027   1.950       .  S
Al1017     O1022   1.776       .  S
O1018      C1025   1.264       .  A
O1018     Al1026   1.924       .  S
O1019      C1028   1.260       .  A
O1019     Al1026   1.928       .  S
O1020     Al1026   1.889       .  S
O1021      C1028   1.254       .  A
O1022     Al1026   1.780       .  S
O1023      C1024   1.270       .  A
C1024      C1349   1.479       .  S
C1025      C1609   1.495       .  S
C1028      C1376   1.479       .  S
C1029      O1030   1.266       .  A
C1029      C1366   1.489       .  S
O1031      C1046   1.258       .  A
O1031     Al1039   1.878       .  S
C1032      O1042   1.264       .  A
C1032      O1033   1.270       .  A
C1032      C1369   1.470       .  S
O1033     Al1035   1.935       .  S
O1034      C1036   1.254       .  A
O1034     Al1035   1.894       .  S
Al1035     O1043   1.866       .  S
Al1035     O1045   1.926       .  S
Al1035     O1044   1.765       .  S
C1036      O1049   1.261       .  A
C1036      C1306   1.479       .  S
O1037      C1047   1.260       .  A
O1037     Al1039   1.891       .  S
O1038      C1051   1.265       .  A
O1038     Al1048   1.903       .  S
Al1039     O1052   1.938       .  S
Al1039     O1049   1.935       .  S
Al1039     O1044   1.781       .  S
O1040      C1047   1.267       .  A
O1040     Al1048   1.930       .  S
O1041      C1050   1.261       .  A
O1041     Al1048   1.934       .  S
O1042     Al1048   1.894       .  S
O1043      C1050   1.251       .  A
O1044     Al1048   1.779       .  S
O1045      C1046   1.267       .  A
C1046      C1316   1.466       .  S
C1047      C1569   1.477       .  S
C1050      C1329   1.472       .  S
C1051      O1052   1.270       .  A
C1051      C1359   1.474       .  S
O1053      C1068   1.260       .  A
O1053     Al1061   1.875       .  S
C1054      O1064   1.263       .  A
C1054      O1055   1.268       .  A
C1054      C1299   1.474       .  S
O1055     Al1057   1.925       .  S
O1056      C1058   1.257       .  A
O1056     Al1057   1.897       .  S
Al1057     O1065   1.880       .  S
Al1057     O1067   1.940       .  S
Al1057     O1066   1.770       .  S
C1058      O1071   1.260       .  A
C1058      C1269   1.477       .  S
O1059      C1069   1.265       .  A
O1059     Al1061   1.894       .  S
O1060     Al1070   1.906       .  S
Al1061     O1074   1.922       .  S
Al1061     O1071   1.924       .  S
Al1061     O1066   1.777       .  S
O1062      C1069   1.268       .  A
O1062     Al1070   1.938       .  S
O1063      C1072   1.262       .  A
O1063     Al1070   1.929       .  S
O1064     Al1070   1.891       .  S
O1065      C1072   1.257       .  A
O1066     Al1070   1.777       .  S
O1067      C1068   1.269       .  A
C1068      C1276   1.463       .  S
C1069      C1519   1.490       .  S
C1072      C1379   1.477       .  S
C1073      C1286   1.470   1_545  S
O1075      C1090   1.259       .  A
O1075     Al1083   1.878       .  S
C1076      O1086   1.261       .  A
C1076      O1077   1.269       .  A
C1076      C1289   1.480       .  S
O1077     Al1079   1.928       .  S
O1078      C1080   1.258       .  A
O1078     Al1079   1.894       .  S
Al1079     O1087   1.881       .  S
Al1079     O1089   1.939       .  S
Al1079     O1088   1.768       .  S
C1080      O1093   1.262       .  A
C1080      C1249   1.475       .  S
O1081      C1091   1.260       .  A
O1081     Al1083   1.886       .  S
O1082      C1095   1.262       .  A
O1082     Al1092   1.900       .  S
Al1083     O1096   1.924       .  S
Al1083     O1093   1.930       .  S
Al1083     O1088   1.773       .  S
O1084      C1091   1.269       .  A
O1084     Al1092   1.931       .  S
O1085      C1094   1.262       .  A
O1085     Al1092   1.925       .  S
O1086     Al1092   1.887       .  S
O1087      C1094   1.257       .  A
O1088     Al1092   1.778       .  S
O1089      C1090   1.268       .  A
C1090      C1256   1.469       .  S
C1091      C1489   1.487       .  S
C1094      C1326   1.474       .  S
C1095      O1096   1.264       .  A
C1095      C1296   1.473       .  S
O1097      C1112   1.259       .  A
O1097     Al1105   1.891       .  S
C1098      O1108   1.264       .  A
C1098      O1099   1.262       .  A
C1098      C1216   1.482       .  S
O1099     Al1101   1.916       .  S
O1100      C1102   1.256       .  A
O1100     Al1101   1.882       .  S
Al1101     O1109   1.871       .  S
Al1101     O1111   1.922       .  S
Al1101     O1110   1.761       .  S
C1102      O1115   1.268       .  A
C1102      C1309   1.487       .  S
O1103      C1113   1.262       .  A
O1103     Al1105   1.895       .  S
O1104      C1117   1.263       .  A
O1104     Al1114   1.898       .  S
Al1105     O1118   1.925       .  S
Al1105     O1115   1.952       .  S
Al1105     O1110   1.777       .  S
O1106      C1113   1.268       .  A
O1106     Al1114   1.932       .  S
O1107      C1116   1.268       .  A
O1107     Al1114   1.949       .  S
O1108     Al1114   1.914       .  S
O1109      C1116   1.258       .  A
O1110     Al1114   1.773       .  S
O1111      C1112   1.261       .  A
C1112      C1346   1.458       .  S
C1113      C1449   1.482       .  S
C1116      C1239   1.474       .  S
C1117      O1118   1.266       .  A
C1117      C1226   1.475       .  S
O1119      C1134   1.259       .  A
O1119     Al1127   1.874       .  S
C1120      O1130   1.262   1_545  A
C1120      O1121   1.268   1_545  A
O1121     Al1123   1.930       .  S
O1122      C1124   1.259       .  A
O1122     Al1123   1.890       .  S
Al1123     O1131   1.877       .  S
Al1123     O1133   1.930       .  S
Al1123     O1132   1.771       .  S
C1124      O1137   1.266       .  A
C1124      C1339   1.491       .  S
O1125      C1135   1.265       .  A
O1125     Al1127   1.903       .  S
O1126      C1139   1.264       .  A
O1126     Al1136   1.901       .  S
Al1127     O1140   1.936       .  S
Al1127     O1137   1.952       .  S
Al1127     O1132   1.775       .  S
O1128      C1135   1.262       .  A
O1128     Al1136   1.913       .  S
O1129      C1138   1.261       .  A
O1129     Al1136   1.928       .  S
O1130     Al1136   1.891       .  S
O1131      C1138   1.256       .  A
O1132     Al1136   1.778       .  S
O1133      C1134   1.265       .  A
C1134      C1319   1.471       .  S
C1135      C1426   1.486       .  S
C1138      C1206   1.479       .  S
C1139      O1140   1.268       .  A
C1139      C1219   1.479       .  S
O1141      C1156   1.258       .  A
O1141     Al1149   1.873       .  S
C1142      O1152   1.263       .  A
C1142      O1143   1.267       .  A
C1142      C1196   1.470       .  S
O1143     Al1145   1.923       .  S
O1144      C1146   1.257       .  A
O1144     Al1145   1.890       .  S
Al1145     O1153   1.881       .  S
Al1145     O1155   1.933       .  S
Al1145     O1154   1.771       .  S
C1146      O1159   1.263       .  A
C1146      C1266   1.481       .  S
O1147      C1157   1.263       .  A
O1147     Al1149   1.894       .  S
O1148      C1161   1.265       .  A
O1148     Al1158   1.906       .  S
Al1149     O1162   1.918       .  S
Al1149     O1159   1.930       .  S
Al1149     O1154   1.773       .  S
O1150      C1157   1.265       .  A
O1150     Al1158   1.925       .  S
O1151      C1160   1.262       .  A
O1151     Al1158   1.926       .  S
O1152     Al1158   1.894       .  S
O1153      C1160   1.257       .  A
O1154     Al1158   1.778       .  S
O1155      C1156   1.266       .  A
C1156      C1259   1.460       .  S
C1157      C1399   1.480       .  S
C1160      C1236   1.473       .  S
C1161      O1162   1.265       .  A
C1161      C1189   1.477       .  S
O1163      C1178   1.257       .  A
O1163     Al1171   1.874       .  S
C1164      O1174   1.262       .  A
C1164      O1165   1.268       .  A
C1164      C1186   1.469       .  S
O1165     Al1167   1.932       .  S
O1166      C1168   1.256       .  A
O1166     Al1167   1.887       .  S
Al1167     O1175   1.873       .  S
Al1167     O1177   1.945       .  S
Al1167     O1176   1.768       .  S
C1168      O1181   1.264       .  A
C1168      C1246   1.481       .  S
O1169      C1179   1.257       .  A
O1169     Al1171   1.881       .  S
O1170      C1183   1.262       .  A
O1170     Al1180   1.897       .  S
Al1171     O1184   1.930       .  S
Al1171     O1181   1.937       .  S
Al1171     O1176   1.767       .  S
O1172      C1179   1.270       .  A
O1172     Al1180   1.950       .  S
O1173      C1182   1.266       .  A
O1173     Al1180   1.942       .  S
O1174     Al1180   1.886       .  S
O1175      C1182   1.256       .  A
O1176     Al1180   1.779       .  S
O1177      C1178   1.269       .  A
C1178      C1279   1.469       .  S
C1179      C1389   1.488       .  S
C1182      C1209   1.476       .  S
C1183      O1184   1.268       .  A
C1185      C1186   1.400       .  A
C1185      C1190   1.396       .  A
C1185      H1192   1.084       .  S
C1186      C1187   1.407       .  A
C1187      C1188   1.400       .  A
C1187     Br1194   1.919       .  S
C1188      C1189   1.406       .  A
C1188      H1193   1.084       .  S
C1189      C1190   1.413       .  A
C1190     Br1191   1.923       .  S
C1195      C1196   1.400       .  A
C1195      C1200   1.398       .  A
C1195      H1202   1.084       .  S
C1196      C1197   1.409       .  A
C1197      C1198   1.398       .  A
C1197     Br1204   1.920       .  S
C1198      C1199   1.405       .  A
C1198      H1203   1.084       .  S
C1199      C1200   1.415       .  A
C1200     Br1201   1.919       .  S
C1205      C1206   1.402       .  A
C1205      C1210   1.391       .  A
C1205      H1212   1.083       .  S
C1206      C1207   1.414       .  A
C1207      C1208   1.404       .  A
C1207     Br1214   1.919       .  S
C1208      C1209   1.404       .  A
C1208      H1213   1.083       .  S
C1209      C1210   1.411       .  A
C1210     Br1211   1.922       .  S
C1215      C1216   1.406       .  A
C1215      C1220   1.402       .  A
C1215      H1222   1.084       .  S
C1216      C1217   1.414       .  A
C1217      C1218   1.399       .  A
C1217     Br1224   1.921       .  S
C1218      C1219   1.402       .  A
C1218      H1223   1.084       .  S
C1219      C1220   1.411       .  A
C1220     Br1221   1.920       .  S
C1225      C1226   1.405       .  A
C1225      C1230   1.400       .  A
C1225      H1232   1.084       .  S
C1226      C1227   1.410       .  A
C1227      C1228   1.399       .  A
C1227     Br1234   1.920       .  S
C1228      C1229   1.404       .  A
C1228      H1233   1.084       .  S
C1229      C1230   1.408       .  A
C1230     Br1231   1.919       .  S
C1235      C1236   1.405       .  A
C1235      C1240   1.404       .  A
C1235      H1242   1.083       .  S
C1236      C1237   1.409       .  A
C1237      C1238   1.392       .  A
C1237     Br1244   1.922       .  S
C1238      C1239   1.401       .  A
C1238      H1243   1.083       .  S
C1239      C1240   1.410       .  A
C1240     Br1241   1.917       .  S
C1245      C1246   1.407   1_556  A
C1245      C1250   1.399       .  A
C1245      H1252   1.079       .  S
C1246      C1247   1.411       .  A
C1247      C1248   1.400   1_554  A
C1247     Br1254   1.922       .  S
C1248      C1249   1.405       .  A
C1248      H1253   1.083       .  S
C1249      C1250   1.405       .  A
C1250     Br1251   1.919       .  S
C1255      C1256   1.408       .  A
C1255      C1260   1.406       .  A
C1255      H1262   1.083       .  S
C1256      C1257   1.412       .  A
C1257      C1258   1.384       .  A
C1257     Br1264   1.922       .  S
C1258      C1259   1.394   1_556  A
C1258      H1263   1.083   1_556  S
C1259      C1260   1.404   1_554  A
C1260     Br1261   1.916   1_556  S
C1265      C1266   1.407   1_556  A
C1265      C1270   1.401       .  A
C1265      H1272   1.080       .  S
C1266      C1267   1.410       .  A
C1267      C1268   1.399   1_554  A
C1267     Br1274   1.922       .  S
C1268      C1269   1.405       .  A
C1268      H1273   1.080       .  S
C1269      C1270   1.406       .  A
C1270     Br1271   1.919       .  S
C1275      C1276   1.396       .  A
C1275      H1282   1.084       .  S
C1276      C1277   1.406       .  A
C1277     Br1284   1.915       .  S
C1278      C1279   1.407   1_556  A
C1278      H1283   1.083   1_556  S
C1279      C1280   1.411   1_554  A
C1280     Br1281   1.921   1_556  S
C1285      C1286   1.401       .  A
C1285      C1290   1.399       .  A
C1285      H1292   1.084       .  S
C1286      C1287   1.408       .  A
C1287      C1288   1.397       .  A
C1287     Br1294   1.919       .  S
C1288      C1289   1.405       .  A
C1288      H1293   1.084       .  S
C1289      C1290   1.415       .  A
C1290     Br1291   1.922       .  S
C1295      C1296   1.404       .  A
C1295      C1300   1.399       .  A
C1295      H1302   1.084       .  S
C1296      C1297   1.409       .  A
C1297      C1298   1.399       .  A
C1297     Br1304   1.920       .  S
C1298      C1299   1.404       .  A
C1298      H1303   1.084       .  S
C1299      C1300   1.409       .  A
C1300     Br1301   1.921       .  S
C1305      C1306   1.395       .  A
C1305      C1310   1.379   1_556  A
C1305      H1312   1.075       .  S
C1306      C1307   1.404       .  A
C1307      C1308   1.414       .  A
C1307     Br1314   1.913       .  S
C1308      C1309   1.416   1_556  A
C1308      H1313   1.084   1_556  S
C1309      C1310   1.415       .  A
C1310     Br1311   1.932       .  S
C1315      C1316   1.404       .  A
C1315      C1320   1.407       .  A
C1315      H1322   1.083       .  S
C1316      C1317   1.409       .  A
C1317      C1318   1.383   1_556  A
C1317     Br1324   1.918       .  S
C1318      C1319   1.397       .  A
C1318      H1323   1.084       .  S
C1319      C1320   1.411   1_554  A
C1320     Br1321   1.916   1_556  S
C1325      C1326   1.406       .  A
C1325      C1330   1.403       .  A
C1325      H1332   1.083       .  S
C1326      C1327   1.409       .  A
C1327      C1328   1.392       .  A
C1327     Br1334   1.922       .  S
C1328      C1329   1.403       .  A
C1328      H1333   1.084       .  S
C1329      C1330   1.408       .  A
C1330     Br1331   1.918       .  S
C1335      C1340   1.406       .  A
C1335      H1342   1.084       .  S
C1336      C1337   1.413       .  A
C1337      C1338   1.401   1_556  A
C1337     Br1344   1.909       .  S
C1338      H1343   1.084       .  S
C1339      C1340   1.415   1_554  A
C1340     Br1341   1.911       .  S
C1345      C1346   1.394   1_556  A
C1345      C1350   1.389       .  A
C1345      H1352   1.085       .  S
C1346      C1347   1.401   1_554  A
C1347      C1348   1.401       .  A
C1347     Br1354   1.913   1_556  S
C1348      C1349   1.408       .  A
C1348      H1353   1.083       .  S
C1349      C1350   1.420       .  A
C1350     Br1351   1.927       .  S
C1355      C1356   1.406       .  A
C1355      C1360   1.400       .  A
C1355      H1362   1.083       .  S
C1356      C1357   1.418       .  A
C1357      C1358   1.401       .  A
C1357     Br1364   1.922       .  S
C1358      C1359   1.399       .  A
C1358      H1363   1.084       .  S
C1359      C1360   1.409       .  A
C1360     Br1361   1.921       .  S
C1365      C1366   1.411       .  A
C1365      C1370   1.402       .  A
C1365      H1372   1.083       .  S
C1366      C1367   1.419       .  A
C1367      C1368   1.398       .  A
C1367     Br1374   1.924       .  S
C1368      C1369   1.399       .  A
C1368      H1373   1.084       .  S
C1369      C1370   1.403       .  A
C1370     Br1371   1.917       .  S
C1375      C1376   1.406       .  A
C1375      C1380   1.404       .  A
C1375      H1382   1.083       .  S
C1376      C1377   1.410       .  A
C1377      C1378   1.395       .  A
C1377     Br1384   1.922       .  S
C1378      C1379   1.403       .  A
C1378      H1383   1.084       .  S
C1379      C1380   1.411       .  A
C1385      C1386   1.406       .  A
C1385      C1390   1.392       .  A
C1385      H1392   1.083       .  S
C1386      C1387   1.416       .  A
C1387      C1388   1.405       .  A
C1387     Br1394   1.920       .  S
C1388      C1389   1.407       .  A
C1388      H1393   1.083       .  S
C1389      C1390   1.416       .  A
C1390     Br1391   1.926       .  S
C1395      C1396   1.406       .  A
C1395      C1400   1.399       .  A
C1395      H1402   1.083       .  S
C1396      C1397   1.420       .  A
C1397      C1398   1.395       .  A
C1397     Br1404   1.925       .  S
C1398      C1399   1.401       .  A
C1398      H1403   1.084       .  S
C1399      C1400   1.413       .  A
C1400     Br1401   1.921       .  S
C1405      C1406   1.412       .  A
C1405      C1410   1.410       .  A
C1405      H1412   1.083       .  S
C1406      C1407   1.415       .  A
C1407      C1408   1.392       .  A
C1407     Br1414   1.920       .  S
C1408      C1409   1.398       .  A
C1408      H1413   1.078       .  S
C1409      C1410   1.406       .  A
C1410     Br1411   1.915       .  S
C1415      C1416   1.402       .  A
C1415      C1420   1.403       .  A
C1415      H1422   1.084       .  S
C1416      C1417   1.405       .  A
C1417      C1418   1.403       .  A
C1417     Br1424   1.918       .  S
C1418      C1419   1.410       .  A
C1418      H1423   1.083       .  S
C1419      C1420   1.418       .  A
C1420     Br1421   1.922       .  S
C1425      C1426   1.405       .  A
C1425      C1430   1.398       .  A
C1425      H1432   1.083       .  S
C1426      C1427   1.419       .  A
C1427      C1428   1.396       .  A
C1427     Br1434   1.924       .  S
C1428      C1429   1.402       .  A
C1428      H1433   1.083       .  S
C1429      C1430   1.415       .  A
C1430     Br1431   1.922       .  S
C1435      C1436   1.400       .  A
C1435      C1440   1.394   1_655  A
C1435      H1442   1.084       .  S
C1436      C1437   1.410       .  A
C1437      C1438   1.402   1_655  A
C1437     Br1444   1.915       .  S
C1438      C1439   1.402       .  A
C1438      H1443   1.084       .  S
C1439      C1440   1.409       .  A
C1440     Br1441   1.921   1_565  S
C1445      C1446   1.406       .  A
C1445      C1450   1.398       .  A
C1445      H1452   1.083       .  S
C1446      C1447   1.414       .  A
C1447      C1448   1.403       .  A
C1447     Br1454   1.921       .  S
C1448      C1449   1.405       .  A
C1448      H1453   1.084       .  S
C1449      C1450   1.412       .  A
C1450     Br1451   1.922       .  S
C1455      C1456   1.403       .  A
C1455      C1460   1.400       .  A
C1455      H1462   1.084       .  S
C1456      C1457   1.407       .  A
C1457      C1458   1.398       .  A
C1457     Br1464   1.920       .  S
C1458      C1459   1.405       .  A
C1458      H1463   1.082       .  S
C1459      C1460   1.413       .  A
C1460     Br1461   1.921       .  S
C1465      C1466   1.404       .  A
C1465      C1470   1.395       .  A
C1465      H1472   1.084       .  S
C1466      C1467   1.412       .  A
C1467      C1468   1.397       .  A
C1467     Br1474   1.920       .  S
C1468      C1469   1.401       .  A
C1468      H1473   1.084       .  S
C1469      C1470   1.408       .  A
C1470     Br1471   1.921       .  S
C1475      C1476   1.406       .  A
C1475      C1480   1.391   1_655  A
C1475      H1482   1.084       .  S
C1476      C1477   1.413       .  A
C1477      C1478   1.405   1_655  A
C1477     Br1484   1.919       .  S
C1478      C1479   1.408       .  A
C1478      H1483   1.083       .  S
C1479      C1480   1.411       .  A
C1480     Br1481   1.925       .  S
C1485      C1486   1.406       .  A
C1485      C1490   1.397       .  A
C1485      H1492   1.083       .  S
C1486      C1487   1.415       .  A
C1487      C1488   1.397       .  A
C1487     Br1494   1.923       .  S
C1488      C1489   1.406       .  A
C1488      H1493   1.083       .  S
C1489      C1490   1.416       .  A
C1490     Br1491   1.924       .  S
C1495      C1496   1.393       .  A
C1495      C1500   1.373       .  A
C1495      H1502   1.082       .  S
C1496      C1497   1.411       .  A
C1497      C1498   1.420       .  A
C1497     Br1504   1.913       .  S
C1498      C1499   1.413       .  A
C1498      H1503   1.083       .  S
C1499      C1500   1.416       .  A
C1500     Br1501   1.919       .  S
C1505      C1506   1.407       .  A
C1505      C1510   1.392       .  A
C1505      H1512   1.084       .  S
C1506      C1507   1.416       .  A
C1507      C1508   1.407       .  A
C1507     Br1514   1.915       .  S
C1508      C1509   1.406       .  A
C1508      H1513   1.084       .  S
C1509      C1510   1.403       .  A
C1510     Br1511   1.901       .  S
C1515      C1516   1.407       .  A
C1515      C1520   1.400       .  A
C1515      H1522   1.083       .  S
C1516      C1517   1.417       .  A
C1517      C1518   1.398       .  A
C1517     Br1524   1.924       .  S
C1518      C1519   1.406       .  A
C1518      H1523   1.083       .  S
C1519      C1520   1.416       .  A
C1520     Br1521   1.922       .  S
C1525      C1526   1.413       .  A
C1525      C1530   1.421       .  A
C1525      H1532   1.083       .  S
C1526      C1527   1.419       .  A
C1527      C1528   1.377       .  A
C1527     Br1534   1.918       .  S
C1528      C1529   1.396       .  A
C1528      H1533   1.083       .  S
C1529      C1530   1.413       .  A
C1530     Br1531   1.913       .  S
C1535      C1536   1.400       .  A
C1535      H1542   1.084       .  S
C1536      C1537   1.410       .  A
C1537     Br1544   1.915       .  S
C1538      C1539   1.404       .  A
C1538      H1543   1.083       .  S
C1539      C1540   1.409       .  A
C1540     Br1541   1.920       .  S
C1545      C1546   1.404       .  A
C1545      C1550   1.402       .  A
C1545      H1552   1.084       .  S
C1546      C1547   1.408       .  A
C1547      C1548   1.401       .  A
C1547     Br1554   1.920       .  S
C1548      C1549   1.408       .  A
C1548      H1553   1.084       .  S
C1549      C1550   1.413       .  A
C1550     Br1551   1.921       .  S
C1555      C1556   1.407       .  A
C1555      C1560   1.401       .  A
C1555      H1562   1.084       .  S
C1556      C1557   1.412       .  A
C1557      C1558   1.399       .  A
C1557     Br1564   1.920       .  S
C1558      C1559   1.403       .  A
C1558      H1563   1.083       .  S
C1559      C1560   1.407       .  A
C1560     Br1561   1.919       .  S
C1565      C1566   1.402       .  A
C1565      C1570   1.400       .  A
C1565      H1572   1.079       .  S
C1566      C1567   1.412       .  A
C1567      C1568   1.395       .  A
C1567     Br1574   1.920       .  S
C1568      C1569   1.402       .  A
C1568      H1573   1.084       .  S
C1569      C1570   1.412       .  A
C1570     Br1571   1.921       .  S
C1575      C1576   1.414       .  A
C1575      C1580   1.407       .  A
C1575      H1582   1.083       .  S
C1576      C1577   1.414       .  A
C1577      C1578   1.386       .  A
C1577     Br1584   1.929       .  S
C1578      C1579   1.396       .  A
C1578      H1583   1.077       .  S
C1579      C1580   1.402       .  A
C1580     Br1581   1.914       .  S
C1585      C1586   1.406       .  A
C1585      C1590   1.408       .  A
C1585      H1592   1.083       .  S
C1586      C1587   1.406       .  A
C1587      C1588   1.382       .  A
C1587     Br1594   1.924       .  S
C1588      C1589   1.399       .  A
C1588      H1593   1.084       .  S
C1589      C1590   1.410       .  A
C1590     Br1591   1.916       .  S
C1595      C1596   1.405       .  A
C1595      C1600   1.404   1_655  A
C1595      H1602   1.084       .  S
C1596      C1597   1.407       .  A
C1597      C1598   1.398   1_655  A
C1597     Br1604   1.921       .  S
C1598      C1599   1.403       .  A
C1598      H1603   1.084       .  S
C1599      C1600   1.409       .  A
C1600     Br1601   1.917       .  S
C1605      C1606   1.404       .  A
C1605      C1610   1.400       .  A
C1605      H1612   1.083       .  S
C1606      C1607   1.419       .  A
C1607      C1608   1.402       .  A
C1607     Br1614   1.923       .  S
C1608      C1609   1.405       .  A
C1608      H1613   1.083       .  S
C1609      C1610   1.420       .  A
C1610     Br1611   1.924       .  S
C1615      C1620   1.401       .  A
C1615      H1622   1.084       .  S
C1616      C1617   1.414       .  A
C1617      C1618   1.404       .  A
C1617     Br1624   1.918       .  S
C1618      H1623   1.083       .  S
C1619      C1620   1.414       .  A
C1620     Br1621   1.905       .  S
C1625      C1626   1.402       .  A
C1625      C1630   1.399       .  A
C1625      H1632   1.084       .  S
C1626      C1627   1.412       .  A
C1627      C1628   1.398       .  A
C1627     Br1634   1.919       .  S
C1628      C1629   1.405       .  A
C1628      H1633   1.084       .  S
C1629      C1630   1.418       .  A
C1630     Br1631   1.924       .  S
C1635      C1636   1.392       .  A
C1635      C1640   1.390       .  A
C1635      H1642   1.085       .  S
C1636      C1637   1.403       .  A
C1637      C1638   1.403       .  A
C1637     Br1644   1.914       .  S
C1638      C1639   1.410       .  A
C1638      H1643   1.083       .  S
C1639      C1640   1.424       .  A
C1640     Br1641   1.925       .  S
C1645      C1646   1.397       .  A
C1645      C1650   1.400       .  A
C1645      H1652   1.084       .  S
C1646      C1647   1.405       .  A
C1647      C1648   1.397       .  A
C1647     Br1654   1.920       .  S
C1648      C1649   1.409       .  A
C1648      H1653   1.083       .  S
C1649      C1650   1.418       .  A
C1650     Br1651   1.914       .  S
C1655      C1656   1.400       .  A
C1655      C1660   1.388   1_655  A
C1655      H1662   1.084       .  S
C1656      C1657   1.417       .  A
C1657      C1658   1.406   1_655  A
C1657     Br1664   1.917       .  S
C1658      C1659   1.403       .  A
C1658      H1663   1.083       .  S
C1659      C1660   1.415       .  A
C1660     Br1661   1.924       .  S
