geometry optimzed in LAMMPS
_audit_creation_date              2020-11-30 
_audit_creation_method            'lammps2cif' 
_symmetry_space_group_name_H-M    'P1' 
_symmetry_Int_Tables_number       1 
_symmetry_cell_setting            triclinic 
loop_ 
_symmetry_equiv_pos_as_xyz 
  x,y,z 
_cell_length_a                    63.81553894 
_cell_length_b                    63.80280833468209 
_cell_length_c                    41.867202240999916 
_cell_angle_alpha                 90.1148367775403 
_cell_angle_beta                  90.02013355276745 
_cell_angle_gamma                 119.943354698276 
loop_ 
_atom_site_label 
_atom_site_type_symbol 
_atom_site_fract_x 
_atom_site_fract_y 
_atom_site_fract_z 
_atom_site_charge 
Fe1        Fe  0.16532225  0.49592797  0.20615179     1.65800
Fe2        Fe  0.12552525  0.44655551  0.16710105     1.73200
Fe3        Fe  0.11463753  0.45465864  0.24359250     1.54400
O4          O  0.14593742  0.46549481  0.27299532    -0.81300
O5          O  0.09427978  0.44697093  0.16680672    -0.79600
O6          O  0.17801175  0.48299349  0.24050701    -0.83800
O7          O  0.15487717  0.51214339  0.24078815    -0.78600
O8          O  0.11212499  0.42174952  0.24341901    -0.80400
O9          O  0.13860946  0.47784204  0.13802204    -0.83100
C10         C  0.13465088  0.50779186  0.25197410     0.97600
C11         C  0.16820271  0.47234327  0.26641678     1.05100
O12         O  0.13509862  0.46538310  0.20590233    -1.12100
O13         O  0.15714300  0.44616001  0.16394852    -0.74600
O14         O  0.18177310  0.48523564  0.17152524    -0.78000
O15         O  0.11567406  0.48742730  0.24824435    -0.78700
C16         C  0.17742306  0.46498024  0.15999549     0.96500
O17         O  0.15224830  0.50892474  0.17186412    -0.76700
O18         O  0.11049254  0.41268127  0.19173374    -0.81900
C19         C  0.07716630  0.43909354  0.18646419     0.99100
C20         C  0.10845761  0.40683724  0.22135785     1.05100
O21         O  0.08117261  0.44020068  0.21675001    -0.77500
C22         C  0.14485331  0.49988516  0.14435297     1.03400
Fe23       Fe  0.99859608  0.16411002  0.36694025     1.65800
Fe24       Fe  0.01463339  0.21579461  0.40640547     1.73200
Fe25       Fe  0.98848197  0.20660651  0.33387146     1.54400
O26         O  0.01062667  0.19900179  0.30253694    -0.81300
O27         O  0.98845245  0.22466708  0.41003613    -0.79600
O28         O  0.02350507  0.17752433  0.33105472    -0.83800
O29         O  0.97178423  0.14862205  0.33315183    -0.78600
O30         O  0.01662115  0.24147402  0.33491698    -0.80400
O31         O  0.99192356  0.18459784  0.43507718    -0.83100
C32         C  0.95604947  0.15322626  0.32260752     0.97600
C33         C  0.02490734  0.19024733  0.30674497     1.05100
O34         O  0.00036706  0.19569251  0.36902438    -1.12100
O35         O  0.04346081  0.21025258  0.40667999    -0.74600
O36         O  0.02460279  0.17092381  0.40127200    -0.78000
O37         O  0.95775556  0.17358458  0.32678566    -0.78700
C38         C  0.04164483  0.19015807  0.41280910     0.96500
O39         O  0.97364215  0.15189190  0.40280734    -0.76700
O40         O  0.03685557  0.24790870  0.38052851    -0.81900
C41         C  0.97053024  0.22222082  0.39430198     0.99100
C42         C  0.03405733  0.25488098  0.35305853     1.05100
O43         O  0.96722803  0.21518530  0.36498780    -0.77500
C44         C  0.97554904  0.16239554  0.42943871     1.03400
Fe45       Fe  0.83173108  0.32605721  0.03246943     1.65800
Fe46       Fe  0.87102874  0.31675261  0.07530656     1.73200
Fe47       Fe  0.88496320  0.33866812  0.49945915     1.54400
O48         O  0.85576698  0.31688419  0.46761055    -0.81300
O49         O  0.90472138  0.34597091  0.07775126    -0.79600
O50         O  0.82168272  0.30085926  0.99681830    -0.83800
O51         O  0.84278001  0.35313797  0.99856122    -0.78600
O52         O  0.89101172  0.31063978  0.00159598    -0.80400
O53         O  0.85915291  0.33728889  0.10253772    -0.83100
C54         C  0.86271184  0.36908039  0.48690548     0.97600
C55         C  0.83322123  0.30129701  0.47172471     1.05100
O56         O  0.86290195  0.32727024  0.03582784    -1.12100
O57         O  0.83838924  0.28544902  0.07795655    -0.74600
O58         O  0.81343610  0.29871814  0.06585468    -0.78000
O59         O  0.88192126  0.36866801  0.49231337    -0.78700
C60         C  0.81783969  0.28364454  0.07948556     0.96500
O61         O  0.84200031  0.35124839  0.06810269    -0.76700
O62         O  0.88446509  0.29643266  0.05139766    -0.81900
C63         C  0.92050106  0.36010082  0.05824739     0.99100
C64         C  0.89140620  0.29674290  0.02261146     1.05100
O65         O  0.91615814  0.36017389  0.02831793    -0.77500
C66         C  0.85059893  0.35124368  0.09554681     1.03400
Fe67       Fe  0.82827820  0.49808754  0.28950863     1.65800
Fe68       Fe  0.86089041  0.55798679  0.30210091     1.73200
Fe69       Fe  0.88826903  0.52714725  0.27503249     1.54400
O70         O  0.87850622  0.49748829  0.30519563    -0.81300
O71         O  0.88274325  0.57741223  0.26549068    -0.79600
O72         O  0.84147330  0.48589640  0.32511642    -0.83800
O73         O  0.83704775  0.47901644  0.25702287    -0.78600
O74         O  0.90916094  0.54908457  0.31122522    -0.80400
O75         O  0.83077138  0.54945776  0.27266424    -0.83100
C76         C  0.85368465  0.48372819  0.23704024     0.97600
C77         C  0.86147416  0.48585166  0.32538753     1.05100
O78         O  0.85948743  0.52807372  0.28867431    -1.12100
O79         O  0.83983472  0.54347928  0.34219173    -0.74600
O80         O  0.81115765  0.50918776  0.32229375    -0.78000
O81         O  0.87206161  0.50474265  0.23579768    -0.78700
C82         C  0.81818658  0.52644286  0.34203289     0.96500
O83         O  0.81642687  0.51160826  0.25381837    -0.76700
O84         O  0.89203010  0.56966294  0.33031748    -0.81900
C85         C  0.89891681  0.57695005  0.24862314     0.99100
C86         C  0.90984281  0.56587734  0.32808985     1.05100
O87         O  0.90133657  0.55825432  0.24618892    -0.77500
C88         C  0.81754854  0.53216695  0.25331101     1.03400
Fe89       Fe  0.15736448  0.66378800  0.45536027     1.65800
Fe90       Fe  0.09642588  0.63151234  0.46459354     1.73200
Fe91       Fe  0.12453197  0.69251397  0.45061447     1.54400
O92         O  0.15230112  0.71039864  0.48384502    -0.81300
O93         O  0.07714143  0.63813682  0.43172087    -0.79600
O94         O  0.16967388  0.68781648  0.49293093    -0.83800
O95         O  0.17357868  0.69222305  0.42417910    -0.78600
O96         O  0.10019750  0.68427870  0.48675541    -0.80400
O97         O  0.10639692  0.61540842  0.42855477    -0.83100
C98         C  0.16887377  0.70666288  0.40956364     0.97600
C99         C  0.16695012  0.70589029  0.49912585     1.05100
O100        O  0.12598396  0.66261040  0.45684511    -1.12100
O101        O  0.11043851  0.61942771  0.99974235    -0.74600
O102        O  0.14883494  0.63556240  0.48615803    -0.78000
O103        O  0.14883871  0.70598434  0.41300218    -0.78700
C104        C  0.13062550  0.62034512  0.00172681     0.96500
O105        O  0.14571821  0.63986398  0.41772426    -0.76700
O106        O  0.08333102  0.64522321  0.49976983    -0.81900
C107        C  0.07800822  0.65545908  0.41609455     0.99100
C108        C  0.08540265  0.66606739  0.00286933     1.05100
O109        O  0.09571826  0.67704353  0.41806107    -0.77500
C110        C  0.12531627  0.62120073  0.41185629     1.03400
Fe111      Fe  0.99400212  0.82221775  0.11816762     1.65800
Fe112      Fe  0.02376844  0.79081074  0.12535904     1.73200
Fe113      Fe  0.96345253  0.76166724  0.10685841     1.54400
O114        O  0.94478380  0.77167237  0.13883155    -0.81300
O115        O  0.01800127  0.76696440  0.08926348    -0.79600
O116        O  0.96967065  0.80979577  0.15502843    -0.83800
O117        O  0.96588727  0.81247859  0.08645746    -0.78600
O118        O  0.96836504  0.74329031  0.14283796    -0.80400
O119        O  0.04202828  0.81899556  0.09287121    -0.83100
C120        C  0.95298243  0.79493133  0.06813637     0.97600
C121        C  0.95008291  0.78962941  0.15732646     1.05100
O122        O  0.99380125  0.79137164  0.11682109    -1.12100
O123        O  0.03493202  0.81451076  0.16377437    -0.74600
O124        O  0.02220127  0.83960028  0.14992503    -0.78000
O125        O  0.95428475  0.77579858  0.06850564    -0.78700
C126        C  0.03579082  0.83468063  0.16629310     0.96500
O127        O  0.01826428  0.83472895  0.08147344    -0.76700
O128        O  0.00734000  0.76163164  0.15695136    -0.81900
C129        C  0.00020194  0.75067227  0.07397859     0.99100
C130        C  0.98558690  0.74420863  0.15894144     1.05100
O131        O  0.97895026  0.74766257  0.07572178    -0.77500
C132        C  0.03689542  0.83275992  0.07648355     1.03400
Fe133      Fe  0.32908038  0.83355121  0.20610082     1.65800
Fe134      Fe  0.32098627  0.87591617  0.16859355     1.73200
Fe135      Fe  0.34013591  0.88419289  0.24646326     1.54400
O136        O  0.31808831  0.85316980  0.27480202    -0.81300
O137        O  0.34965229  0.90994507  0.17203779    -0.79600
O138        O  0.30414047  0.82149194  0.24183787    -0.83800
O139        O  0.35678341  0.84301040  0.23882872    -0.78600
O140        O  0.31129378  0.88967854  0.24459791    -0.80400
O141        O  0.34389515  0.86808149  0.14028643    -0.83100
C142        C  0.37184240  0.86196038  0.25357762     0.97600
C143        C  0.30391968  0.83063231  0.26870365     1.05100
O144        O  0.33017660  0.86477169  0.20698711    -1.12100
O145        O  0.29062538  0.84348490  0.15879771    -0.74600
O146        O  0.30130040  0.81690581  0.17338648    -0.78000
O147        O  0.37003551  0.88078787  0.25377634    -0.78700
C148        C  0.28743060  0.82235249  0.15858777     0.96500
O149        O  0.35380401  0.84511835  0.16989781    -0.76700
O150        O  0.29801493  0.88484867  0.19424155    -0.81900
C151        C  0.36442619  0.92345948  0.19300189     0.99100
C152        C  0.29655193  0.88893185  0.22382103     1.05100
O153        O  0.36318206  0.91700904  0.22216286    -0.77500
C154        C  0.35668067  0.85794060  0.14528907     1.03400
Fe155      Fe  0.16729868  0.99475117  0.37175372     1.65800
Fe156      Fe  0.21424279  0.99821455  0.33158280     1.73200
Fe157      Fe  0.20621243  0.98235326  0.40966342     1.54400
O158        O  0.19802873  0.00475103  0.43819436    -0.81300
O159        O  0.21288173  0.96563960  0.33344012    -0.79600
O160        O  0.18295315  0.02143465  0.40511298    -0.83800
O161        O  0.15005620  0.96932428  0.40747389    -0.78600
O162        O  0.24035278  0.01095376  0.40670123    -0.80400
O163        O  0.18211802  0.98077956  0.30395757    -0.83100
C164        C  0.15329352  0.95290297  0.41931941     0.97600
C165        C  0.19178635  0.02054339  0.43190920     1.05100
O166        O  0.19614394  0.99175365  0.37104919    -1.12100
O167        O  0.21701360  0.03144494  0.32683431    -0.74600
O168        O  0.17895398  0.02099758  0.33641493    -0.78000
O169        O  0.17283923  0.95271507  0.41610755    -0.78700
C170        C  0.19949155  0.03531130  0.32450834     0.96500
O171        O  0.15151776  0.96794120  0.33831586    -0.76700
O172        O  0.24828894  0.01587715  0.35449166    -0.81900
C173        C  0.21544518  0.95379640  0.35584637     0.99100
C174        C  0.25485465  0.02038950  0.38369499     1.05100
O175        O  0.21572080  0.95930253  0.38526956    -0.77500
C176        C  0.15969019  0.96730339  0.31089562     1.03400
Fe177      Fe  0.49119001  0.15640950  0.04373842     1.65800
Fe178      Fe  0.44086676  0.11200478  0.07720821     1.73200
Fe179      Fe  0.45442993  0.10795066  0.50115509     1.54400
O180        O  0.46699552  0.13969927  0.47332628    -0.81300
O181        O  0.44435277  0.08244083  0.07684997    -0.79600
O182        O  0.47873388  0.16952292  0.50868283    -0.83800
O183        O  0.51038562  0.14807112  0.01029088    -0.78600
O184        O  0.42300121  0.10816105  0.00163644    -0.80400
O185        O  0.47061861  0.12685193  0.10974228    -0.83100
C186        C  0.50690477  0.12858463  0.49700387     0.97600
C187        C  0.47212604  0.16124288  0.48067988     1.05100
O188        O  0.46243698  0.12520512  0.04087500    -1.12100
O189        O  0.43703107  0.14201207  0.07985155    -0.74600
O190        O  0.47620141  0.16945903  0.07700809    -0.78000
O191        O  0.48683058  0.10910950  0.49846530    -0.78700
C192        C  0.45463218  0.16304605  0.08527229     0.96500
O193        O  0.50356661  0.14342090  0.07907244    -0.76700
O194        O  0.40837258  0.09303621  0.04877007    -0.81900
C195        C  0.44022360  0.06782632  0.05423100     0.99100
C196        C  0.40534620  0.09449199  0.01875845     1.05100
O197        O  0.44015004  0.07361692  0.02482650    -0.77500
C198        C  0.49324491  0.13442703  0.10549203     1.03400
Fe199      Fe  0.82543809  0.99963313  0.12051340     1.65800
Fe200      Fe  0.79443305  0.02942412  0.11300298     1.73200
Fe201      Fe  0.76452207  0.96804361  0.12039302     1.54400
O202        O  0.77865104  0.95185620  0.09022639    -0.81300
O203        O  0.76958136  0.02124621  0.14874676    -0.79600
O204        O  0.81725984  0.97947859  0.07973454    -0.83800
O205        O  0.81244374  0.96793698  0.14700354    -0.78600
O206        O  0.75016922  0.97523062  0.08096194    -0.80400
O207        O  0.82156863  0.04599391  0.14728240    -0.83100
C208        C  0.79341282  0.95438355  0.16267431     0.97600
C209        C  0.79814594  0.95948551  0.07412017     1.05100
O210        O  0.79453802  0.99905225  0.11784107    -1.12100
O211        O  0.81941710  0.04189739  0.07593533    -0.74600
O212        O  0.84512462  0.03104247  0.09395973    -0.78000
O213        O  0.77512646  0.95713426  0.16078548    -0.78700
C214        C  0.84034300  0.04419715  0.07621538     0.96500
O215        O  0.83389445  0.02000392  0.16138132    -0.76700
O216        O  0.76616711  0.01538925  0.08001423    -0.81900
C217        C  0.75081422  0.00205668  0.15757787     0.99100
C218        C  0.75032732  0.99413089  0.07125518     1.05100
O219        O  0.74669437  0.98105882  0.14939404    -0.77500
C220        C  0.83309672  0.03935507  0.16577817     1.03400
Fe221      Fe  0.50333898  0.83540082  0.45649861     1.65800
Fe222      Fe  0.56383840  0.86564973  0.45053471     1.73200
Fe223      Fe  0.53342686  0.89627977  0.46150986     1.54400
O224        O  0.50338694  0.88411545  0.43128751    -0.81300
O225        O  0.57942467  0.88717697  0.48962425    -0.79600
O226        O  0.49226185  0.84605007  0.41685306    -0.83800
O227        O  0.48479176  0.84762771  0.48517495    -0.78600
O228        O  0.55532644  0.91195764  0.42266115    -0.80400
O229        O  0.55186713  0.83536526  0.48034031    -0.83100
C230        C  0.49031245  0.86604247  0.00247502     0.97600
C231        C  0.49162421  0.86553674  0.41344568     1.05100
O232        O  0.53377683  0.86606370  0.45635235    -1.12100
O233        O  0.55142545  0.84421823  0.40996170    -0.74600
O234        O  0.51551331  0.81691445  0.42754302    -0.78000
O235        O  0.51138477  0.88440354  0.00150567    -0.78700
C236        C  0.53326805  0.82304703  0.40877228     0.96500
O237        O  0.51425331  0.82440232  0.49609513    -0.76700
O238        O  0.57997268  0.89668004  0.42194842    -0.81900
C239        C  0.58037938  0.90669778  0.49831546     0.99100
C240        C  0.57478549  0.91283238  0.41392398     1.05100
O241        O  0.56429955  0.91208106  0.49049683    -0.77500
C242        C  0.53364750  0.82345372  0.49864350     1.03400
Fe243      Fe  0.66192790  0.15338918  0.28894496     1.65800
Fe244      Fe  0.63118173  0.09237118  0.28941331     1.73200
Fe245      Fe  0.69296053  0.12340242  0.28673750     1.54400
O246        O  0.70751277  0.15207889  0.25433928    -0.81300
O247        O  0.64239018  0.07983643  0.32727344    -0.79600
O248        O  0.68019285  0.16356267  0.24618180    -0.83800
O249        O  0.69439880  0.17274589  0.31392539    -0.78600
O250        O  0.68173989  0.09952725  0.24880929    -0.80400
O251        O  0.61613462  0.10606811  0.32205086    -0.83100
C252        C  0.70918484  0.16797282  0.32790809     0.97600
C253        C  0.69987361  0.16421013  0.23896875     1.05100
O254        O  0.66206021  0.12288719  0.28826125    -1.12100
O255        O  0.61642692  0.10174774  0.25151157    -0.74600
O256        O  0.62921963  0.13998926  0.26429984    -0.78000
O257        O  0.70809827  0.14765012  0.32452621    -0.78700
C258        C  0.61465959  0.12068734  0.24950532     0.96500
O259        O  0.64403107  0.14427107  0.33180056    -0.76700
O260        O  0.64252702  0.07435901  0.25793876    -0.81900
C261        C  0.66193345  0.07959289  0.33204423     0.99100
C262        C  0.66237734  0.07954533  0.24421554     1.05100
O263        O  0.68174633  0.09428922  0.31830307    -0.77500
C264        C  0.62418236  0.12542745  0.33854087     1.03400
Fe265      Fe  0.48953531  0.32361632  0.28768254     1.65800
Fe266      Fe  0.46056652  0.35498399  0.28982194     1.73200
Fe267      Fe  0.42938320  0.29406928  0.29355944     1.54400
O268        O  0.44137232  0.27583645  0.26366531    -0.81300
O269        O  0.44214542  0.34654199  0.33201532    -0.79600
O270        O  0.47772073  0.30376357  0.24634240    -0.83800
O271        O  0.47655581  0.29214596  0.31480736    -0.78600
O272        O  0.41653394  0.30234492  0.25395707    -0.80400
O273        O  0.49263029  0.37208831  0.31696852    -0.83100
C274        C  0.45867173  0.28035994  0.33344617     0.97600
C275        C  0.45871435  0.28322080  0.24364329     1.05100
O276        O  0.45974765  0.32427893  0.29023407    -1.12100
O277        O  0.48022663  0.36587706  0.24776241    -0.74600
O278        O  0.50735001  0.35535830  0.26084771    -0.78000
O279        O  0.44063434  0.28364407  0.33340073    -0.78700
C280        C  0.50124976  0.36847586  0.24495389     0.96500
O281        O  0.50159007  0.34329853  0.32887402    -0.76700
O282        O  0.42720943  0.34054012  0.26455181    -0.81900
C283        C  0.42031072  0.33000377  0.33408904     0.99100
C284        C  0.41232476  0.31969656  0.25304201     1.05100
O285        O  0.41297441  0.30915600  0.32196416    -0.77500
C286        C  0.50370239  0.36388840  0.33373568     1.03400
Fe287      Fe  0.17068223  0.16420108  0.12194842     1.65800
Fe288      Fe  0.23100403  0.19477799  0.11965934     1.73200
Fe289      Fe  0.19994098  0.22449801  0.12194913     1.54400
O290        O  0.16883955  0.21020562  0.09339010    -0.81300
O291        O  0.24174673  0.21474338  0.16045809    -0.79600
O292        O  0.15988639  0.17259405  0.08047234    -0.83800
O293        O  0.15210394  0.17792838  0.14782873    -0.78600
O294        O  0.21946245  0.23463547  0.08069723    -0.80400
O295        O  0.21787923  0.16399488  0.14863393    -0.83100
C296        C  0.15775711  0.19680227  0.16438154     0.97600
C297        C  0.15768036  0.19109136  0.07636619     1.05100
O298        O  0.20058128  0.19457694  0.12116837    -1.12100
O299        O  0.22112565  0.17384701  0.07880487    -0.74600
O300        O  0.18464467  0.14596497  0.09560961    -0.78000
O301        O  0.17901726  0.21502707  0.16299723    -0.78700
C302        C  0.20315148  0.15247672  0.07793490     0.96500
O303        O  0.18096180  0.15549881  0.16376619    -0.76700
O304        O  0.24881121  0.22717029  0.09273826    -0.81900
C305        C  0.24650343  0.23645782  0.16160002     0.99100
C306        C  0.24152090  0.24058762  0.08009647     1.05100
O307        O  0.23249540  0.24304867  0.14886601    -0.77500
C308        C  0.19985228  0.15393509  0.16762293     1.03400
Fe309      Fe  0.33155227  0.48666581  0.45549223     1.65800
Fe310      Fe  0.36142479  0.45617095  0.45870022     1.73200
Fe311      Fe  0.30071091  0.42639455  0.44982707     1.54400
O312        O  0.28235653  0.43921347  0.47782040    -0.81300
O313        O  0.35436119  0.43678828  0.41739664    -0.79600
O314        O  0.31023177  0.47573071  0.49539707    -0.83800
O315        O  0.30091732  0.47429213  0.42710106    -0.78600
O316        O  0.30673895  0.41285217  0.49067103    -0.80400
O317        O  0.37998298  0.48735239  0.43060655    -0.83100
C318        C  0.28945387  0.45672923  0.40791974     0.97600
C319        C  0.28957959  0.45678279  0.49753247     1.05100
O320        O  0.33126674  0.45627021  0.45478476    -1.12100
O321        O  0.37120418  0.47664183  0.00022030    -0.74600
O322        O  0.36229681  0.50422667  0.48389808    -0.78000
O323        O  0.29226407  0.43835884  0.40846069    -0.78700
C324        C  0.37425169  0.49790213  0.00171187     0.96500
O325        O  0.35291573  0.49787321  0.41556323    -0.76700
O326        O  0.34544771  0.42345091  0.48496037    -0.81900
C327        C  0.33723734  0.41527039  0.41449330     0.99100
C328        C  0.32397669  0.40866406  0.99436426     1.05100
O329        O  0.31589540  0.40896083  0.42381537    -0.77500
C330        C  0.37325529  0.49896697  0.41236220     1.03400
Fe331      Fe  0.50252315  0.66065865  0.20401105     1.65800
Fe332      Fe  0.54523442  0.65399627  0.24494992     1.73200
Fe333      Fe  0.55333217  0.66855201  0.16545550     1.54400
O334        O  0.52295631  0.64300427  0.13922332    -0.81300
O335        O  0.58019628  0.68092700  0.23833522    -0.79600
O336        O  0.49021836  0.63655965  0.16668364    -0.83800
O337        O  0.51381307  0.68928320  0.17293559    -0.78600
O338        O  0.56108206  0.64150167  0.17285770    -0.80400
O339        O  0.53968545  0.67977033  0.26993784    -0.83100
C340        C  0.53147563  0.70121643  0.15438891     0.97600
C341        C  0.50000599  0.63183459  0.14344368     1.05100
O342        O  0.53370090  0.66110802  0.20482126    -1.12100
O343        O  0.51235474  0.62602733  0.25901374    -0.74600
O344        O  0.48480799  0.63190023  0.23499538    -0.78000
O345        O  0.54836867  0.69651174  0.15105670    -0.78700
C346        C  0.49067604  0.62056518  0.25446220     0.96500
O347        O  0.51294627  0.68485856  0.24116894    -0.76700
O348        O  0.55139224  0.62775947  0.22271391    -0.81900
C349        C  0.59287511  0.69581939  0.21694839     0.99100
C350        C  0.55789228  0.62629921  0.19431595     1.05100
O351        O  0.58539688  0.69450718  0.18834167    -0.77500
C352        C  0.52733524  0.69030682  0.26471172     1.03400
Fe353      Fe  0.66318985  0.50017753  0.04475882     1.65800
Fe354      Fe  0.64496205  0.53265196  0.00143185     1.73200
Fe355      Fe  0.66521950  0.54975665  0.07742918     1.54400
O356        O  0.64543975  0.51920520  0.10808208    -0.81300
O357        O  0.67070764  0.56780390  0.99963534    -0.79600
O358        O  0.63798397  0.48610628  0.08008285    -0.83800
O359        O  0.69045045  0.51534136  0.07884732    -0.78600
O360        O  0.63393697  0.55050925  0.07382527    -0.80400
O361        O  0.66923880  0.52587884  0.47470317    -0.83100
C362        C  0.70324358  0.53618345  0.09086849     0.97600
C363        C  0.63390769  0.49605986  0.10378980     1.05100
O364        O  0.65772800  0.52771340  0.04129827    -1.12100
O365        O  0.61765262  0.49770835  0.49844635    -0.74600
O366        O  0.63691049  0.47839315  0.01141046    -0.78000
O367        O  0.69812715  0.55267589  0.08675885    -0.78700
C368        C  0.61936177  0.47887657  0.49792719     0.96500
O369        O  0.68849801  0.51458175  0.00948108    -0.76700
O370        O  0.61995818  0.54065442  0.02413703    -0.81900
C371        C  0.68393575  0.58478795  0.01840041     0.99100
C372        C  0.61847306  0.54698051  0.05267020     1.05100
O373        O  0.68416056  0.58140918  0.04860123    -0.77500
C374        C  0.68668508  0.52224049  0.48222456     1.03400
Fe375      Fe  0.82605085  0.82772230  0.36281503     1.65800
Fe376      Fe  0.77750206  0.79290808  0.40741074     1.73200
Fe377      Fe  0.78146625  0.77528879  0.33207595     1.54400
O378        O  0.78973418  0.80485313  0.30043442    -0.81300
O379        O  0.77113822  0.75879134  0.41054031    -0.79600
O380        O  0.81179748  0.83910816  0.32834770    -0.83800
O381        O  0.83930051  0.81461460  0.32789359    -0.78600
O382        O  0.74825828  0.77185867  0.33549685    -0.80400
O383        O  0.81002484  0.80326403  0.43330107    -0.83100
C384        C  0.83362098  0.79398043  0.31696296     0.97600
C385        C  0.79858466  0.82784315  0.30449156     1.05100
O386        O  0.79472210  0.79829885  0.36737375    -1.12100
O387        O  0.78162319  0.82661783  0.40890639    -0.74600
O388        O  0.82013426  0.84812659  0.39679460    -0.78000
O389        O  0.81343683  0.77557657  0.32316606    -0.78700
C390        C  0.80141049  0.84617098  0.41007177     0.96500
O391        O  0.83975226  0.81553405  0.39719906    -0.76700
O392        O  0.74353316  0.78152293  0.38511115    -0.81900
C393        C  0.76696572  0.74138168  0.39235785     0.99100
C394        C  0.73572964  0.77441733  0.35672744     1.05100
O395        O  0.77032957  0.74418481  0.36201202    -0.77500
C396        C  0.83162328  0.80868077  0.42522941     1.03400
C397        C  0.73568552  0.69344051  0.45717638    -0.05100
C398        C  0.74122538  0.67546051  0.44859259     0.09100
C399        C  0.75454333  0.67835496  0.42029409    -0.02400
C400        C  0.76259590  0.69935523  0.40098029    -0.00700
C401        C  0.75678597  0.71736777  0.40937882    -0.04300
C402        C  0.74229703  0.71349983  0.43719976     0.02700
C403        C  0.72810905  0.65155110  0.46571275     0.09500
C404        C  0.75951095  0.65941205  0.41085598     0.35400
C405        C  0.73281201  0.72943467  0.44488786     0.38900
C406        C  0.70416997  0.63527356  0.45646226    -0.04700
C407        C  0.68957402  0.61454368  0.47480846     0.02500
C408        C  0.69898971  0.60901100  0.00248635    -0.04300
C409        C  0.72329524  0.62520611  0.01138473    -0.00500
C410        C  0.73762444  0.64654771  0.49333676    -0.03100
C411        C  0.69437242  0.64020457  0.42791954     0.36200
C412        C  0.73386375  0.61950886  0.03826442     0.39800
C413        C  0.66468565  0.59904165  0.46458188     0.38900
C414        C  0.76224811  0.66335649  0.50297814     0.35900
C415        C  0.72215776  0.69072031  0.48630479     0.36500
C416        C  0.77641227  0.70206322  0.37236168     0.39800
N417        N  0.64502657  0.58667269  0.45587758    -0.38300
N418        N  0.68673668  0.64424824  0.40514370    -0.39900
N419        N  0.74230861  0.61486369  0.05964866    -0.37600
N420        N  0.78193498  0.67675797  0.51066326    -0.40000
N421        N  0.76339478  0.64420449  0.40340232    -0.39800
N422        N  0.78719039  0.70391193  0.34930695    -0.37400
N423        N  0.72515087  0.74200286  0.45108044    -0.38500
N424        N  0.71154882  0.68854891  0.00956634    -0.40100
C425        C  0.63549761  0.74585706  0.27104336    -0.05100
C426        C  0.65465540  0.74084490  0.27328142     0.09100
C427        C  0.65608756  0.72525186  0.25030368    -0.02400
C428        C  0.63716067  0.71273912  0.22789843    -0.00700
C429        C  0.61675316  0.71578878  0.22811804    -0.04300
C430        C  0.61698360  0.73375116  0.24811342     0.02700
C431        C  0.67278128  0.75104155  0.30032634     0.09500
C432        C  0.67663602  0.72139526  0.25057409     0.35400
C433        C  0.59771648  0.73936706  0.24545405     0.38900
C434        C  0.67307586  0.73549359  0.32419619    -0.04700
C435        C  0.69235048  0.74403495  0.34645903     0.02500
C436        C  0.71112156  0.76840761  0.34584530    -0.04300
C437        C  0.70911902  0.78451328  0.32459021    -0.00500
C438        C  0.69042000  0.77585979  0.30149303    -0.03100
C439        C  0.65412059  0.71032709  0.32478330     0.36200
C440        C  0.72718750  0.80993139  0.32529912     0.39800
C441        C  0.69385072  0.72726287  0.36835818     0.38900
C442        C  0.69028133  0.79228705  0.27770876     0.35900
C443        C  0.63407074  0.76247518  0.29340145     0.36500
C444        C  0.63846111  0.69647893  0.20484958     0.39800
N445        N  0.69489116  0.71368146  0.38564018    -0.38300
N446        N  0.63900981  0.69023627  0.32507856    -0.39900
N447        N  0.74124603  0.83035103  0.32579835    -0.37600
N448        N  0.69017203  0.80545030  0.25881958    -0.40000
N449        N  0.69303077  0.71830917  0.25103817    -0.39800
N450        N  0.63978395  0.68389280  0.18601770    -0.37400
N451        N  0.58266851  0.74431473  0.24295912    -0.38500
N452        N  0.63298935  0.77583155  0.31114056    -0.40100
C453        C  0.59102327  0.58302163  0.08315138    -0.05100
C454        C  0.57808457  0.56861290  0.10961060     0.09100
C455        C  0.57283710  0.54436999  0.11070992    -0.02400
C456        C  0.58283525  0.53561595  0.08768967    -0.00700
C457        C  0.59859986  0.55108304  0.06377954    -0.04300
C458        C  0.60121332  0.57427442  0.06033199     0.02700
C459        C  0.57146062  0.57956250  0.13706004     0.09500
C460        C  0.55825746  0.52884880  0.13654056     0.35400
C461        C  0.61567620  0.58975790  0.03447130     0.38900
C462        C  0.54750303  0.57469605  0.14118181    -0.04700
C463        C  0.54223835  0.58755901  0.16435659     0.02500
C464        C  0.56082908  0.60568743  0.18326589    -0.04300
C465        C  0.58411099  0.60837964  0.18181948    -0.00500
C466        C  0.58949006  0.59552112  0.15867409    -0.03100
C467        C  0.52845345  0.55721895  0.12067751     0.36200
C468        C  0.60250521  0.62455544  0.20404885     0.39800
C469        C  0.51767758  0.58262693  0.16818302     0.38900
C470        C  0.61379479  0.59929666  0.15629048     0.35900
C471        C  0.59485841  0.60733692  0.08034496     0.36500
C472        C  0.57779707  0.51088625  0.08946487     0.39800
N473        N  0.49790818  0.57818509  0.17150028    -0.38300
N474        N  0.51322229  0.54312185  0.10447131    -0.39900
N475        N  0.61704703  0.63703118  0.22230667    -0.37600
N476        N  0.63317035  0.60226215  0.15416315    -0.40000
N477        N  0.54649534  0.51651905  0.15712738    -0.39800
N478        N  0.57325763  0.49096555  0.09086828    -0.37400
N479        N  0.62700772  0.60234804  0.01383844    -0.38500
N480        N  0.59792890  0.62675313  0.07821668    -0.40100
C481        C  0.43056374  0.54555690  0.36962461    -0.05100
C482        C  0.42123949  0.54724758  0.33981195     0.09100
C483        C  0.39638027  0.53251855  0.33328211    -0.02400
C484        C  0.38081594  0.51621200  0.35655513    -0.00700
C485        C  0.38996533  0.51489768  0.38693296    -0.04300
C486        C  0.41506367  0.52950239  0.39311874     0.02700
C487        C  0.43767054  0.56523671  0.31573323     0.09500
C488        C  0.38682400  0.53439063  0.30263770     0.35400
C489        C  0.42501939  0.52884828  0.42401939     0.38900
C490        C  0.45300693  0.56025327  0.29691956    -0.04700
C491        C  0.47021915  0.57818197  0.27656494     0.02500
C492        C  0.47158673  0.60094648  0.27406647    -0.04300
C493        C  0.45575185  0.60565113  0.29241316    -0.00500
C494        C  0.43896415  0.58789107  0.31327348    -0.03100
C495        C  0.45121391  0.53671482  0.29890210     0.36200
C496        C  0.45784374  0.62937067  0.29158360     0.39800
C497        C  0.48676357  0.57326258  0.25869550     0.38900
C498        C  0.42354175  0.59318119  0.33313951     0.35900
C499        C  0.45613847  0.56093523  0.37640217     0.36500
C500        C  0.35553087  0.50027903  0.34864894     0.39800
N501        N  0.50010028  0.56928258  0.24487967    -0.38300
N502        N  0.44970167  0.51790045  0.30048703    -0.39900
N503        N  0.45963786  0.64833595  0.29102623    -0.37600
N504        N  0.41124094  0.59734277  0.34906744    -0.40000
N505        N  0.37921429  0.53602118  0.27825126    -0.39800
N506        N  0.33542389  0.48752777  0.34213972    -0.37400
N507        N  0.43311646  0.52839488  0.44857301    -0.38500
N508        N  0.47653049  0.57323272  0.38174358    -0.40100
C509        C  0.40895510  0.55550046  0.05200923    -0.05100
C510        C  0.43121680  0.55636347  0.05712000     0.09100
C511        C  0.43446133  0.53745711  0.04532902    -0.02400
C512        C  0.41556383  0.51770058  0.02870962    -0.00700
C513        C  0.39315109  0.51679924  0.02324365    -0.04300
C514        C  0.38995331  0.53577677  0.03565026     0.02700
C515        C  0.44985542  0.57546646  0.07870916     0.09500
C516        C  0.45739003  0.53839787  0.05037061     0.35400
C517        C  0.36677245  0.53473470  0.03281823     0.38900
C518        C  0.44611017  0.57314751  0.11194306    -0.04700
C519        C  0.46228132  0.59146815  0.13282500     0.02500
C520        C  0.48340495  0.61205996  0.12087877    -0.04300
C521        C  0.48764215  0.61380471  0.08744016    -0.00500
C522        C  0.47060859  0.59588901  0.06645843    -0.03100
C523        C  0.42529158  0.55169138  0.12467066     0.36200
C524        C  0.50902500  0.63438626  0.07431735     0.39800
C525        C  0.45698779  0.58853159  0.16678820     0.38900
C526        C  0.47398793  0.59881879  0.03218197     0.35900
C527        C  0.40557384  0.57498393  0.06395504     0.36500
C528        C  0.41957330  0.49857938  0.01698994     0.39800
N529        N  0.45249027  0.58584514  0.19376520    -0.38300
N530        N  0.40868231  0.53452864  0.13460558    -0.39900
N531        N  0.52616833  0.65071775  0.06382342    -0.37600
N532        N  0.47660507  0.60128392  0.00482021    -0.40000
N533        N  0.47576104  0.53926218  0.05418487    -0.39800
N534        N  0.42283594  0.48331129  0.00785294    -0.37400
N535        N  0.34829064  0.53390912  0.03066279    -0.38500
N536        N  0.40292733  0.59054270  0.07349488    -0.40100
C537        C  0.29159723  0.34013006  0.00273377    -0.05100
C538        C  0.30287729  0.33715204  0.02981856     0.09100
C539        C  0.32251764  0.35762685  0.04407960    -0.02400
C540        C  0.33022756  0.38111364  0.03205172    -0.00700
C541        C  0.31769255  0.38423381  0.00639854    -0.04300
C542        C  0.29845975  0.36347023  0.49156395     0.02700
C543        C  0.29043515  0.31320267  0.04648375     0.09500
C544        C  0.33409036  0.35452367  0.07189704     0.35400
C545        C  0.28491754  0.36572308  0.46521466     0.38900
C546        C  0.29458264  0.29417382  0.03777940    -0.04700
C547        C  0.27904625  0.27035065  0.04902219     0.02500
C548        C  0.25908170  0.26547708  0.06865505    -0.04300
C549        C  0.25588757  0.28503939  0.07857484    -0.00500
C550        C  0.27144637  0.30861848  0.06754332    -0.03100
C551        C  0.31445220  0.29910535  0.01659339     0.36200
C552        C  0.23657162  0.28125521  0.10034001     0.39800
C553        C  0.28295494  0.25078774  0.03917408     0.38900
C554        C  0.26727011  0.32820199  0.07680958     0.35900
C555        C  0.27180739  0.31905884  0.48741108     0.36500
C556        C  0.34996191  0.40208819  0.04733520     0.39800
N557        N  0.28607783  0.23516426  0.03128026    -0.38300
N558        N  0.33040267  0.30314143  0.99975954    -0.39900
N559        N  0.22118161  0.27848598  0.11750023    -0.37600
N560        N  0.26392174  0.34379951  0.08406264    -0.40000
N561        N  0.34337020  0.35207189  0.09414500    -0.39800
N562        N  0.36568355  0.41886475  0.05955227    -0.37400
N563        N  0.27347478  0.36684383  0.44453466    -0.38500
N564        N  0.25608680  0.30223222  0.47527837    -0.40100
C565        C  0.59038856  0.42448527  0.44136224    -0.05100
C566        C  0.56785609  0.42283765  0.43551963     0.09100
C567        C  0.56085153  0.43690461  0.45370250    -0.02400
C568        C  0.57698617  0.45387519  0.47596044    -0.00700
C569        C  0.60067019  0.45740087  0.47972015    -0.04300
C570        C  0.60678466  0.44165397  0.46337320     0.02700
C571        C  0.55180878  0.40708306  0.40923777     0.09500
C572        C  0.53711827  0.43427239  0.44891354     0.35400
C573        C  0.63016138  0.44345225  0.46804270     0.38900
C574        C  0.53069235  0.38507702  0.41639002    -0.04700
C575        C  0.51482697  0.37108680  0.39166940     0.02500
C576        C  0.52007433  0.37895403  0.35965582    -0.04300
C577        C  0.54149074  0.40064539  0.35240120    -0.00500
C578        C  0.55720942  0.41480018  0.37716755    -0.03100
C579        C  0.52520044  0.37702045  0.44926633     0.36200
C580        C  0.54775927  0.40794608  0.31936999     0.39800
C581        C  0.49281152  0.34883057  0.39926104     0.38900
C582        C  0.57882776  0.43748971  0.36973279     0.35900
C583        C  0.59683899  0.40876047  0.42413664     0.36500
C584        C  0.56888153  0.46746768  0.99519107     0.39800
N585        N  0.47523026  0.33111180  0.40538849    -0.38300
N586        N  0.52079804  0.37070539  0.47552979    -0.39900
N587        N  0.55285497  0.41365152  0.29301482    -0.37600
N588        N  0.59608601  0.45559597  0.36385621    -0.40000
N589        N  0.51813299  0.43201961  0.44515899    -0.39800
N590        N  0.56234142  0.47819302  0.01055526    -0.37400
N591        N  0.64873326  0.44472156  0.47179859    -0.38500
N592        N  0.60196752  0.39620695  0.41039935    -0.40100
C593        C  0.57480939  0.44239264  0.13484394    -0.05100
C594        C  0.57720051  0.44583011  0.16810034     0.09100
C595        C  0.59786968  0.46628391  0.18063115    -0.02400
C596        C  0.61605316  0.48324545  0.15992282    -0.00700
C597        C  0.61422341  0.47935086  0.12642275    -0.04300
C598        C  0.59334979  0.45844947  0.11425281     0.02700
C599        C  0.55839670  0.42674617  0.18946505     0.09500
C600        C  0.60075597  0.46936233  0.21495037     0.35400
C601        C  0.59032343  0.45299611  0.08037208     0.38900
C602        C  0.55793430  0.40458912  0.19351366    -0.04700
C603        C  0.53864459  0.38523557  0.20986751     0.02500
C604        C  0.52000008  0.38810632  0.22406831    -0.04300
C605        C  0.52090044  0.41071611  0.22052953    -0.00500
C606        C  0.53971043  0.42965616  0.20278003    -0.03100
C607        C  0.57744187  0.40170166  0.18053769     0.36200
C608        C  0.50310860  0.41508797  0.23602499     0.39800
C609        C  0.53783946  0.36213185  0.21098611     0.38900
C610        C  0.53978221  0.45218074  0.19790228     0.35900
C611        C  0.55309086  0.42194921  0.12175332     0.36500
C612        C  0.63714913  0.50395223  0.17341018     0.39800
N613        N  0.53735334  0.34376991  0.21163779    -0.38300
N614        N  0.59306513  0.39949386  0.17026263    -0.39900
N615        N  0.48902658  0.41872970  0.24843293    -0.37600
N616        N  0.53985153  0.47015540  0.19392955    -0.40000
N617        N  0.60306626  0.47167338  0.24237332    -0.39800
N618        N  0.65394179  0.52045551  0.18436629    -0.37400
N619        N  0.58730968  0.44777253  0.05363159    -0.38500
N620        N  0.53576856  0.40569588  0.11138151    -0.40100
C621        C  0.36102211  0.31921715  0.20505989    -0.05100
C622        C  0.34064157  0.29903951  0.21848483     0.09100
C623        C  0.34370907  0.28744513  0.24511854    -0.02400
C624        C  0.36708689  0.29432491  0.25626656    -0.00700
C625        C  0.38779457  0.31396813  0.24199486    -0.04300
C626        C  0.38453504  0.32692913  0.21708452     0.02700
C627        C  0.31709273  0.28623558  0.20073084     0.09500
C628        C  0.32269621  0.26732454  0.25987116     0.35400
C629        C  0.40542959  0.34692237  0.20220958     0.38900
C630        C  0.31428012  0.26905104  0.17747054    -0.04700
C631        C  0.29137471  0.25339438  0.16434754     0.02500
C632        C  0.27071916  0.25456759  0.17449964    -0.04300
C633        C  0.27375792  0.27266030  0.19657060    -0.00500
C634        C  0.29691341  0.28839968  0.20977370    -0.03100
C635        C  0.33499840  0.26681688  0.16797257     0.36200
C636        C  0.25293645  0.27428782  0.20682716     0.39800
C637        C  0.28940709  0.23604866  0.14028214     0.38900
C638        C  0.29995302  0.30642373  0.23321251     0.35900
C639        C  0.35779472  0.33125525  0.17789409     0.36500
C640        C  0.36944948  0.28007855  0.28151962     0.39800
N641        N  0.28826029  0.22230284  0.12128906    -0.38300
N642        N  0.35153088  0.26506798  0.16055460    -0.39900
N643        N  0.23622576  0.27547422  0.21495479    -0.37600
N644        N  0.30239866  0.32088580  0.25186135    -0.40000
N645        N  0.30594000  0.25135840  0.27165504    -0.39800
N646        N  0.37054153  0.26797323  0.30124908    -0.37400
N647        N  0.42213993  0.36281381  0.19024388    -0.38500
N648        N  0.35519050  0.34088192  0.15618083    -0.40100
C649        C  0.33625359  0.36153851  0.37200543    -0.05100
C650        C  0.35748970  0.36297715  0.38445525     0.09100
C651        C  0.37062596  0.37997687  0.40847013    -0.02400
C652        C  0.36390064  0.39689361  0.41806830    -0.00700
C653        C  0.34343921  0.39665595  0.40417847    -0.04300
C654        C  0.32905816  0.37820720  0.38208687     0.02700
C655        C  0.36958393  0.35116043  0.36782464     0.09500
C656        C  0.39207719  0.38092469  0.42199872     0.35400
C657        C  0.30772735  0.37720979  0.36838604     0.38900
C658        C  0.38644743  0.36447606  0.34387085    -0.04700
C659        C  0.40328956  0.35782638  0.33378184     0.02500
C660        C  0.40252420  0.33673622  0.34617292    -0.04300
C661        C  0.38417710  0.32218156  0.36817210    -0.00500
C662        C  0.36811473  0.32975401  0.37959925    -0.03100
C663        C  0.38712024  0.38584335  0.33058445     0.36200
C664        C  0.38248871  0.30010262  0.38013228     0.39800
C665        C  0.42157257  0.37323273  0.31082523     0.38900
C666        C  0.35057607  0.31604923  0.40410863     0.35900
C667        C  0.32244502  0.34347240  0.34797803     0.36500
C668        C  0.37857320  0.41469161  0.44209661     0.39800
N669        N  0.43615333  0.38594498  0.29284455    -0.38300
N670        N  0.38753577  0.40278624  0.31999142    -0.39900
N671        N  0.38097475  0.28238646  0.38966332    -0.37600
N672        N  0.33654696  0.30513529  0.42368677    -0.40000
N673        N  0.40916789  0.38165613  0.43265358    -0.39800
N674        N  0.39068061  0.42881464  0.46104635    -0.37400
N675        N  0.29070509  0.37645196  0.35744408    -0.38500
N676        N  0.31143544  0.32895369  0.32886763    -0.40100
C677        C  0.63600516  0.02845083  0.39150819    -0.05100
C678        C  0.64030111  0.01152519  0.37523028     0.09100
C679        C  0.65759162  0.01972548  0.35046536    -0.02400
C680        C  0.66795558  0.04377806  0.33930412    -0.00700
C681        C  0.66026068  0.05941597  0.35198350    -0.04300
C682        C  0.64592067  0.05230465  0.37986087     0.02700
C683        C  0.62455878  0.98486547  0.38153692     0.09500
C684        C  0.66363302  0.00300334  0.33525120     0.35400
C685        C  0.64128363  0.06958873  0.39634503     0.38900
C686        C  0.60049569  0.97267119  0.37012468    -0.04700
C687        C  0.58491481  0.94801084  0.37730271     0.02500
C688        C  0.59295872  0.93528553  0.39678848    -0.04300
C689        C  0.61781374  0.94691031  0.40541382    -0.00500
C690        C  0.63339536  0.97165997  0.39821972    -0.03100
C691        C  0.59150233  0.98578431  0.35169935     0.36200
C692        C  0.62730239  0.93390906  0.42301008     0.39800
C693        C  0.56047907  0.93571602  0.36457725     0.38900
C694        C  0.65829342  0.98381143  0.40913765     0.35900
C695        C  0.62059529  0.02107646  0.41946293     0.36500
C696        C  0.68524517  0.05177029  0.31335019     0.39800
N697        N  0.54102570  0.92588489  0.35433258    -0.38300
N698        N  0.58430798  0.99633222  0.33725729    -0.39900
N699        N  0.63487272  0.92342823  0.43681774    -0.37600
N700        N  0.67817870  0.99345827  0.41778664    -0.40000
N701        N  0.66851335  0.98960151  0.32339816    -0.39800
N702        N  0.69915209  0.05817767  0.29275003    -0.37400
N703        N  0.63786140  0.08350206  0.40968728    -0.38500
N704        N  0.60840043  0.01550578  0.44188154    -0.40100
C705        C  0.52620189  0.79056388  0.07758601    -0.05100
C706        C  0.53407796  0.77421968  0.06915662     0.09100
C707        C  0.54271161  0.77462804  0.03803326    -0.02400
C708        C  0.54321480  0.79112079  0.01522456    -0.00700
C709        C  0.53476719  0.80719619  0.02332242    -0.04300
C710        C  0.52655565  0.80702275  0.05481172     0.02700
C711        C  0.53301438  0.75622562  0.09290723     0.09500
C712        C  0.55061927  0.75763581  0.02935725     0.35400
C713        C  0.51909968  0.82423844  0.06415166     0.38900
C714        C  0.51135842  0.73410269  0.09711647    -0.04700
C715        C  0.51069609  0.71641860  0.11789031     0.02500
C716        C  0.53180476  0.72074430  0.13463252    -0.04300
C717        C  0.55337943  0.74318484  0.13082333    -0.00500
C718        C  0.55389751  0.76088323  0.11015316    -0.03100
C719        C  0.48987474  0.72931705  0.07936780     0.36200
C720        C  0.57504337  0.74822154  0.14831358     0.39800
C721        C  0.48854630  0.69326499  0.12059059     0.38900
C722        C  0.57596948  0.78391215  0.10635252     0.35900
C723        C  0.51767900  0.79032778  0.10976757     0.36500
C724        C  0.55172532  0.79091603  0.48315531     0.39800
N725        N  0.47092525  0.67478477  0.12276926    -0.38300
N726        N  0.47272799  0.72547796  0.06522860    -0.39900
N727        N  0.59236448  0.75223150  0.16214994    -0.37600
N728        N  0.59352413  0.80232893  0.10325120    -0.40000
N729        N  0.55686595  0.74402544  0.02253831    -0.39800
N730        N  0.55859895  0.79069640  0.45764477    -0.37400
N731        N  0.51321397  0.83800858  0.07162917    -0.38500
N732        N  0.51086964  0.79004657  0.13546689    -0.40100
C733        C  0.55424571  0.78687921  0.35697755    -0.05100
C734        C  0.53204884  0.76695147  0.34733967     0.09100
C735        C  0.51031023  0.76611197  0.35610379    -0.02400
C736        C  0.51068351  0.78478611  0.37489332    -0.00700
C737        C  0.53295354  0.80447638  0.38594133    -0.04300
C738        C  0.55480342  0.80537124  0.37637800     0.02700
C739        C  0.53158228  0.74744101  0.32643267     0.09500
C740        C  0.48744743  0.74598523  0.34540984     0.35400
C741        C  0.57807386  0.82484642  0.38705051     0.38900
C742        C  0.53088053  0.72680130  0.33988547    -0.04700
C743        C  0.52971501  0.70820426  0.31999574     0.02500
C744        C  0.52967264  0.71025936  0.28630948    -0.04300
C745        C  0.53053522  0.73120095  0.27302669    -0.00500
C746        C  0.53155538  0.74958083  0.29296989    -0.03100
C747        C  0.53117349  0.72468842  0.37432153     0.36200
C748        C  0.53080222  0.73435086  0.23867290     0.39800
C749        C  0.52706267  0.68633951  0.33430446     0.38900
C750        C  0.53260804  0.77089911  0.27902156     0.35900
C751        C  0.57663530  0.78837886  0.34659438     0.36500
C752        C  0.48796264  0.78385909  0.38188659     0.39800
N753        N  0.52471378  0.66878373  0.34570377    -0.38300
N754        N  0.53149636  0.72312334  0.40182957    -0.39900
N755        N  0.53115458  0.73725409  0.21136356    -0.37600
N756        N  0.53348104  0.78791951  0.26794221    -0.40000
N757        N  0.46923351  0.72992035  0.33683288    -0.39800
N758        N  0.46981524  0.78308454  0.38738535    -0.37400
N759        N  0.59671186  0.84033341  0.39545664    -0.38500
N760        N  0.59445232  0.78958698  0.33808843    -0.40100
C761        C  0.79373821  0.90602221  0.02838515    -0.05100
C762        C  0.80131173  0.91613509  0.99773693     0.09100
C763        C  0.80770805  0.94033030  0.99205287    -0.02400
C764        C  0.80634441  0.95440921  0.01699603    -0.00700
C765        C  0.79878058  0.94436861  0.04778257    -0.04300
C766        C  0.79265437  0.92015454  0.05347178     0.02700
C767        C  0.80267275  0.90107931  0.47159354     0.09500
C768        C  0.81571331  0.95071089  0.46053715     0.35400
C769        C  0.78641071  0.91008276  0.08538286     0.38900
C770        C  0.78219516  0.88682411  0.45262866    -0.04700
C771        C  0.78210034  0.86967393  0.43132428     0.02500
C772        C  0.80269069  0.86670572  0.42884205    -0.04300
C773        C  0.82364727  0.88205114  0.44704588    -0.00500
C774        C  0.82362665  0.89928998  0.46807275    -0.03100
C775        C  0.76089330  0.88930474  0.45599560     0.36200
C776        C  0.84467469  0.87901467  0.44660537     0.39800
C777        C  0.76042329  0.85477805  0.41273810     0.38900
C778        C  0.84486414  0.91454464  0.98728920     0.35900
C779        C  0.78731206  0.88107867  0.03404952     0.36500
C780        C  0.81238933  0.97913250  0.01079331     0.39800
N781        N  0.74295274  0.84285418  0.39828288    -0.38300
N782        N  0.74396400  0.89135602  0.45879816    -0.39900
N783        N  0.86162785  0.87687777  0.44698617    -0.37600
N784        N  0.86175473  0.92672417  0.00262556    -0.40000
N785        N  0.82219428  0.95901489  0.43544355    -0.39800
N786        N  0.81726696  0.99887246  0.00581576    -0.37400
N787        N  0.78160263  0.90190711  0.11077319    -0.38500
N788        N  0.78220917  0.86117715  0.03836451    -0.40100
C789        C  0.81290277  0.91620649  0.21198226    -0.05100
C790        C  0.79083899  0.89436668  0.21574238     0.09100
C791        C  0.76959385  0.89216501  0.20230753    -0.02400
C792        C  0.77028932  0.91170061  0.18539987    -0.00700
C793        C  0.79233318  0.93405630  0.18226296    -0.04300
C794        C  0.81366473  0.93602161  0.19584452     0.02700
C795        C  0.78969428  0.87523483  0.23779986     0.09500
C796        C  0.74689279  0.86975139  0.20626230     0.35400
C797        C  0.83644849  0.95864133  0.19436071     0.38900
C798        C  0.78998746  0.87899713  0.27089386    -0.04700
C799        C  0.79271900  0.86356585  0.29235206     0.02500
C800        C  0.79370191  0.84291600  0.28114769    -0.04300
C801        C  0.79119883  0.83803029  0.24784054    -0.00500
C802        C  0.78974335  0.85443401  0.22627451    -0.03100
C803        C  0.78768186  0.89915794  0.28289260     0.36200
C804        C  0.79109075  0.81676072  0.23542433     0.39800
C805        C  0.79465066  0.86958913  0.32606293     0.38900
C806        C  0.78880914  0.85024846  0.19214631     0.35900
C807        C  0.83488971  0.91832665  0.22531357     0.36500
C808        C  0.74827309  0.90821789  0.17040156     0.39800
N809        N  0.79640598  0.87510207  0.35267657    -0.38300
N810        N  0.78568663  0.91512559  0.29236555    -0.39900
N811        N  0.79086885  0.79971114  0.22548014    -0.37600
N812        N  0.78805050  0.84693749  0.16487754    -0.40000
N813        N  0.72881221  0.85183740  0.20940533    -0.39800
N814        N  0.73069114  0.90535175  0.15838890    -0.37400
N815        N  0.85467606  0.97663076  0.19329739    -0.38500
N816        N  0.85235224  0.91987823  0.23595269    -0.40100
C817        C  0.69205679  0.00165530  0.17480986    -0.05100
C818        C  0.70061961  0.02246964  0.19423316     0.09100
C819        C  0.72441011  0.03332785  0.20651807    -0.02400
C820        C  0.73998937  0.02453237  0.19772113    -0.00700
C821        C  0.73230221  0.00526929  0.17558874    -0.04300
C822        C  0.70776988  0.99301568  0.16560148     0.02700
C823        C  0.68517146  0.03366631  0.20131946     0.09500
C824        C  0.73326732  0.05432643  0.22720701     0.35400
C825        C  0.69898107  0.97245815  0.14417955     0.38900
C826        C  0.66745449  0.02420168  0.22555329    -0.04700
C827        C  0.65691043  0.03776039  0.23692873     0.02500
C828        C  0.66436197  0.06105267  0.22437617    -0.04300
C829        C  0.67885188  0.06840409  0.19665704    -0.00500
C830        C  0.68967158  0.05509580  0.18558043    -0.03100
C831        C  0.66098572  0.00106037  0.23977260     0.36200
C832        C  0.68219651  0.08949319  0.17932230     0.39800
C833        C  0.63945301  0.02823507  0.26267620     0.38900
C834        C  0.70629193  0.06405314  0.15887502     0.35900
C835        C  0.66737674  0.98978867  0.16310830     0.36500
C836        C  0.76416712  0.03555154  0.21119444     0.39800
N837        N  0.62541138  0.02050058  0.28310519    -0.38300
N838        N  0.65574090  0.98245308  0.25076684    -0.39900
N839        N  0.68437986  0.10602238  0.16515249    -0.37600
N840        N  0.71963876  0.07140945  0.13764912    -0.40000
N841        N  0.74048681  0.07124772  0.24341924    -0.39800
N842        N  0.78341630  0.04422289  0.22200113    -0.37400
N843        N  0.69200851  0.95601544  0.12714428    -0.38500
N844        N  0.64764776  0.98023210  0.15385676    -0.40100
C845        C  0.63949603  0.93176940  0.04337312    -0.05100
C846        C  0.65279877  0.95496354  0.02949304     0.09100
C847        C  0.64063699  0.96386274  0.01061019    -0.02400
C848        C  0.61581164  0.94897831  0.50354767    -0.00700
C849        C  0.60299256  0.92478212  0.01486665    -0.04300
C850        C  0.61474272  0.91679727  0.03619852     0.02700
C851        C  0.67972116  0.96940708  0.03414048     0.09500
C852        C  0.65396788  0.98803050  0.49727591     0.35400
C853        C  0.60154161  0.89275536  0.04996539     0.38900
C854        C  0.69479133  0.96187601  0.01934197    -0.04700
C855        C  0.71923559  0.97213813  0.02863305     0.02500
C856        C  0.72890645  0.99029084  0.05241969    -0.04300
C857        C  0.71462273  0.99995277  0.06408472    -0.00500
C858        C  0.69001215  0.98926505  0.05537111    -0.03100
C859        C  0.68479153  0.94265318  0.49583600     0.36200
C860        C  0.72450993  0.01945623  0.08732936     0.39800
C861        C  0.73421826  0.96330425  0.01473829     0.38900
C862        C  0.67491842  0.99771559  0.06986055     0.35900
C863        C  0.65156335  0.92281270  0.06398172     0.36500
C864        C  0.60407120  0.95803639  0.48254047     0.39800
N865        N  0.74617285  0.95624487  0.00372710    -0.38300
N866        N  0.67694229  0.92721111  0.47713372    -0.39900
N867        N  0.73245150  0.03502300  0.10585093    -0.37600
N868        N  0.66292957  0.00455810  0.08132301    -0.40000
N869        N  0.66453703  0.00734197  0.48676856    -0.39800
N870        N  0.59459830  0.96515565  0.46579206    -0.37400
N871        N  0.59103969  0.87354635  0.06080940    -0.38500
N872        N  0.66112018  0.91544004  0.08015060    -0.40100
C873        C  0.56410360  0.13311811  0.22368166    -0.05100
C874        C  0.55831791  0.12282973  0.19287030     0.09100
C875        C  0.57006028  0.11057733  0.18115534    -0.02400
C876        C  0.58812849  0.10942637  0.19960393    -0.00700
C877        C  0.59462387  0.12048999  0.23016894    -0.04300
C878        C  0.58185729  0.13173618  0.24235311     0.02700
C879        C  0.54091614  0.12625232  0.17211205     0.09500
C880        C  0.56374890  0.09948673  0.14976174     0.35400
C881        C  0.58619837  0.14121089  0.27467872     0.38900
C882        C  0.54938563  0.14754358  0.15394447    -0.04700
C883        C  0.53344387  0.15093061  0.13402178     0.02500
C884        C  0.50866856  0.13281036  0.13151642    -0.04300
C885        C  0.49991834  0.11213316  0.15138212    -0.00500
C886        C  0.51604119  0.10879814  0.17125154    -0.03100
C887        C  0.57475731  0.16594690  0.15550495     0.36200
C888        C  0.47449020  0.09389292  0.15098926     0.39800
C889        C  0.54266478  0.17346652  0.11654212     0.38900
C890        C  0.50713730  0.08716209  0.19050574     0.35900
C891        C  0.55181691  0.14538084  0.23605315     0.36500
C892        C  0.60052543  0.09751493  0.18654684     0.39800
N893        N  0.55003755  0.19142894  0.10260649    -0.38300
N894        N  0.59499371  0.18060359  0.15678284    -0.39900
N895        N  0.45418328  0.07935256  0.15096563    -0.37600
N896        N  0.50005511  0.06986734  0.20583534    -0.40000
N897        N  0.55859133  0.09061053  0.12472423    -0.39800
N898        N  0.61039404  0.08796656  0.17614036    -0.37400
N899        N  0.58931383  0.14870328  0.30048263    -0.38500
N900        N  0.54201099  0.15519151  0.24578108    -0.40100
C901        C  0.56679895  0.13540683  0.46921448    -0.05100
C902        C  0.56133645  0.12810914  0.43699518     0.09100
C903        C  0.53837424  0.12164310  0.42449046    -0.02400
C904        C  0.52072951  0.12195362  0.44422994    -0.00700
C905        C  0.52598632  0.12888888  0.47666900    -0.04300
C906        C  0.54919989  0.13604449  0.48899121     0.02700
C907        C  0.57982661  0.12792680  0.41535958     0.09500
C908        C  0.53306460  0.11499496  0.39103971     0.35400
C909        C  0.55480685  0.14366620  0.52205058     0.38900
C910        C  0.57855617  0.10588049  0.40736571    -0.04700
C911        C  0.59320583  0.10496049  0.38278519     0.02500
C912        C  0.60957669  0.12635150  0.36605833    -0.04300
C913        C  0.61130859  0.14867891  0.37529766    -0.00500
C914        C  0.59654794  0.14934136  0.39984648    -0.03100
C915        C  0.56159619  0.08398346  0.42408244     0.36200
C916        C  0.62705892  0.17100022  0.35849554     0.39800
C917        C  0.59089558  0.08175456  0.37476087     0.38900
C918        C  0.59781148  0.17202108  0.40837725     0.35900
C919        C  0.59046267  0.14211258  0.48192029     0.36500
C920        C  0.49742661  0.11599921  0.43070191     0.39800
N921        N  0.58871217  0.06310099  0.36839265    -0.38300
N922        N  0.54803703  0.06658313  0.43747315    -0.39900
N923        N  0.63952392  0.18884540  0.34514982    -0.37600
N924        N  0.59880776  0.19007805  0.41522861    -0.40000
N925        N  0.52892759  0.10973202  0.36436665    -0.39800
N926        N  0.47891490  0.11131115  0.41979781    -0.37400
N927        N  0.55923295  0.14988138  0.04838778    -0.38500
N928        N  0.60936403  0.14744527  0.49203007    -0.40100
C929        C  0.48165348  0.21886462  0.43964141    -0.05100
C930        C  0.46295209  0.20955952  0.41681967     0.09100
C931        C  0.44823088  0.18434636  0.41317031    -0.02400
C932        C  0.45184055  0.16840211  0.43277026    -0.00700
C933        C  0.47023537  0.17758586  0.45647828    -0.04300
C934        C  0.48564983  0.20307651  0.45887830     0.02700
C935        C  0.46016340  0.22650998  0.39490533     0.09500
C936        C  0.42914652  0.17485953  0.38931149     0.35400
C937        C  0.50629126  0.21334496  0.48035026     0.38900
C938        C  0.47027815  0.23068726  0.36411990    -0.04700
C939        C  0.46908316  0.24763800  0.34384091     0.02500
C940        C  0.45867448  0.26152495  0.35468696    -0.04300
C941        C  0.44809707  0.25688203  0.38553538    -0.00500
C942        C  0.44857976  0.23920062  0.40531337    -0.03100
C943        C  0.48221799  0.21761601  0.35343429     0.36200
C944        C  0.43725927  0.27061231  0.39756044     0.39800
C945        C  0.47780285  0.24983833  0.31135316     0.38900
C946        C  0.43724988  0.23406996  0.43653050     0.35900
C947        C  0.49685135  0.24486921  0.44323919     0.36500
C948        C  0.43627451  0.14264298  0.42829925     0.39800
N949        N  0.48471388  0.25118724  0.28548835    -0.38300
N950        N  0.49173900  0.20718722  0.34500942    -0.39900
N951        N  0.42854528  0.28144598  0.40738676    -0.37600
N952        N  0.42812914  0.22990629  0.46138462    -0.40000
N953        N  0.41396647  0.16734744  0.37025044    -0.39800
N954        N  0.42368869  0.12220166  0.42372821    -0.37400
N955        N  0.52276113  0.22166104  0.49744125    -0.38500
N956        N  0.50876517  0.26561611  0.44611732    -0.40100
C957        C  0.47542950  0.24927060  0.18298551    -0.05100
C958        C  0.45289215  0.23411161  0.16846262     0.09100
C959        C  0.43255986  0.23595987  0.17705354    -0.02400
C960        C  0.43444787  0.25222907  0.20123561    -0.00700
C961        C  0.45690687  0.26698108  0.21682465    -0.04300
C962        C  0.47754248  0.26575735  0.20691300     0.02700
C963        C  0.45038525  0.21505249  0.14561922     0.09500
C964        C  0.40965808  0.22094740  0.16097154     0.35400
C965        C  0.50084898  0.28049321  0.22218865     0.38900
C966        C  0.44240883  0.19143867  0.15687369    -0.04700
C967        C  0.44241894  0.17394334  0.13638508     0.02500
C968        C  0.45057105  0.18007470  0.10458509    -0.04300
C969        C  0.45746749  0.20338522  0.09291697    -0.00500
C970        C  0.45745748  0.22089689  0.11347954    -0.03100
C971        C  0.43535144  0.18554124  0.19004110     0.36200
C972        C  0.46439033  0.20929817  0.05975265     0.39800
C973        C  0.43544620  0.15006868  0.14864408     0.38900
C974        C  0.46546418  0.24516646  0.10198603     0.35900
C975        C  0.49636457  0.24737921  0.17378638     0.36500
C976        C  0.41323041  0.25388525  0.20948809     0.39800
N977        N  0.42993701  0.13103424  0.15834924    -0.38300
N978        N  0.42981992  0.18090705  0.21652901    -0.39900
N979        N  0.46971239  0.21413139  0.03325176    -0.37600
N980        N  0.47196590  0.26458757  0.09295617    -0.40000
N981        N  0.39145094  0.20898912  0.14801788    -0.39800
N982        N  0.39614317  0.25495462  0.21588972    -0.37400
N983        N  0.51947479  0.29202533  0.23436995    -0.38500
N984        N  0.51301486  0.24583399  0.16638709    -0.40100
C985        C  0.36419939  0.06868084  0.44713076    -0.05100
C986        C  0.34119493  0.06240294  0.45910691     0.09100
C987        C  0.33843989  0.06387926  0.49260514    -0.02400
C988        C  0.35895687  0.07368963  0.01324745    -0.00700
C989        C  0.38193922  0.07998575  0.00085425    -0.04300
C990        C  0.38344654  0.07455051  0.46819535     0.02700
C991        C  0.32010026  0.05329717  0.43621987     0.09500
C992        C  0.31453662  0.05523310  0.00586244     0.35400
C993        C  0.40445209  0.07377734  0.45628163     0.38900
C994        C  0.31355476  0.03246151  0.41720849    -0.04700
C995        C  0.29504163  0.02493561  0.39415811     0.02500
C996        C  0.28054300  0.03575276  0.39300533    -0.04300
C997        C  0.28768563  0.05722805  0.41045214    -0.00500
C998        C  0.30789882  0.06644254  0.43119216    -0.03100
C999        C  0.32526306  0.01820117  0.42196228     0.36200
C1000       C  0.27405597  0.06970095  0.40694359     0.39800
C1001       C  0.29106498  0.00633825  0.37110393     0.38900
C1002       C  0.31602934  0.08933430  0.44737146     0.35900
C1003       C  0.36841779  0.06984263  0.41290175     0.36500
C1004       C  0.35633668  0.07706415  0.04689818     0.39800
N1005       N  0.28847949  0.99222361  0.35181972    -0.38300
N1006       N  0.33463519  0.00685093  0.42570601    -0.39900
N1007       N  0.26316678  0.07963294  0.40397921    -0.37600
N1008       N  0.32255387  0.10764780  0.46020933    -0.40000
N1009       N  0.29544259  0.04821610  0.01647957    -0.39800
N1010       N  0.35419800  0.07962507  0.07383822    -0.37400
N1011       N  0.42108680  0.07300716  0.44677618    -0.38500
N1012       N  0.37177946  0.07092502  0.38563820    -0.40100
C1013       C  0.17921228  0.06416184  0.47894302    -0.05100
C1014       C  0.20072791  0.07727773  0.49662132     0.09100
C1015       C  0.21862357  0.07044768  0.49530789    -0.02400
C1016       C  0.21547911  0.05123284  0.47521932    -0.00700
C1017       C  0.19427194  0.03864274  0.45644877    -0.04300
C1018       C  0.17580523  0.04474509  0.45937033     0.02700
C1019       C  0.20364325  0.09745908  0.01788754     0.09500
C1020       C  0.24033888  0.08334134  0.51452901     0.35400
C1021       C  0.15279315  0.03051557  0.44310912     0.38900
C1022       C  0.19807974  0.09310099  0.05058857    -0.04700
C1023       C  0.19898122  0.11145830  0.07029296     0.02500
C1024       C  0.20405772  0.13395435  0.05713029    -0.04300
C1025       C  0.20981049  0.13835724  0.02431047    -0.00500
C1026       C  0.21013757  0.12035759  0.50489539    -0.03100
C1027       C  0.19078591  0.06940978  0.06378631     0.36200
C1028       C  0.21437570  0.16096972  0.01014056     0.39800
C1029       C  0.19567616  0.10733134  0.10439593     0.38900
C1030       C  0.21666222  0.12507302  0.47143862     0.35900
C1031       C  0.16042868  0.07062625  0.98105947     0.36500
C1032       C  0.23432756  0.04488970  0.47352973     0.39800
N1033       N  0.19339520  0.10365985  0.13156029    -0.38300
N1034       N  0.18482313  0.05045972  0.07419139    -0.39900
N1035       N  0.21798553  0.17901570  0.49876480    -0.37600
N1036       N  0.22194800  0.12874632  0.44475337    -0.40000
N1037       N  0.25761132  0.09354557  0.52998886    -0.39800
N1038       N  0.24937090  0.03980797  0.47250979    -0.37400
N1039       N  0.13441585  0.01908052  0.43029311    -0.38500
N1040       N  0.14555838  0.07592190  0.98267327    -0.40100
C1041       C  0.19389684  0.08923634  0.29725179    -0.05100
C1042       C  0.20454495  0.09335630  0.26675011     0.09100
C1043       C  0.21529716  0.07990221  0.25636510    -0.02400
C1044       C  0.21425032  0.06138927  0.27564969    -0.00700
C1045       C  0.20262922  0.05639792  0.30575777    -0.04300
C1046       C  0.19287180  0.07075441  0.31675600     0.02700
C1047       C  0.20252856  0.11018064  0.24400356     0.09500
C1048       C  0.22672920  0.08462542  0.22519577     0.35400
C1049       C  0.18179223  0.06661106  0.34808941     0.38900
C1050       C  0.22252895  0.13329192  0.23833541    -0.04700
C1051       C  0.22155905  0.14786644  0.21379744     0.02500
C1052       C  0.20054843  0.13923841  0.19461294    -0.04300
C1053       C  0.18018323  0.11630796  0.20120275    -0.00500
C1054       C  0.18123463  0.10188344  0.22582591    -0.03100
C1055       C  0.24429241  0.14178771  0.25738499     0.36200
C1056       C  0.15859617  0.10675025  0.18148600     0.39800
C1057       C  0.24212549  0.17186722  0.20886790     0.38900
C1058       C  0.16069753  0.07800314  0.23173742     0.35900
C1059       C  0.18371959  0.10383913  0.30824788     0.36500
C1060       C  0.22377136  0.04651474  0.26336922     0.39800
N1061       N  0.25871336  0.19095776  0.20537650    -0.38300
N1062       N  0.26168116  0.14851214  0.27250465    -0.39900
N1063       N  0.14146316  0.09898919  0.16561461    -0.37600
N1064       N  0.14437864  0.05895961  0.23653880    -0.40000
N1065       N  0.23589143  0.08853588  0.20038361    -0.39800
N1066       N  0.23130109  0.03462531  0.25350675    -0.37400
N1067       N  0.17288909  0.06335851  0.37302627    -0.38500
N1068       N  0.17564882  0.11553842  0.31699931    -0.40100
C1069       C  0.45011221  0.88738275  0.04343898    -0.05100
C1070       C  0.43190165  0.86575660  0.05719930     0.09100
C1071       C  0.43297213  0.84433010  0.05322793    -0.02400
C1072       C  0.45257403  0.84466100  0.03696860    -0.00700
C1073       C  0.47097459  0.86630801  0.02294433    -0.04300
C1074       C  0.46937711  0.88767863  0.02617135     0.02700
C1075       C  0.41319887  0.86582071  0.07921831     0.09500
C1076       C  0.41367256  0.82179099  0.06599751     0.35400
C1077       C  0.48688286  0.90989040  0.01060829     0.38900
C1078       C  0.39235835  0.86567608  0.06747544    -0.04700
C1079       C  0.37421851  0.86389540  0.08880336     0.02500
C1080       C  0.37629194  0.86128802  0.12216382    -0.04300
C1081       C  0.39756936  0.86174304  0.13363832    -0.00500
C1082       C  0.41605852  0.86481961  0.11241387    -0.03100
C1083       C  0.38946723  0.86708071  0.03335097     0.36200
C1084       C  0.40115215  0.85958962  0.16747753     0.39800
C1085       C  0.35310909  0.86394136  0.07606778     0.38900
C1086       C  0.43847771  0.86734721  0.12480243     0.35900
C1087       C  0.44894535  0.90938431  0.04703010     0.36500
C1088       C  0.45413648  0.82275446  0.03592238     0.39800
N1089       N  0.33631543  0.86411439  0.06594217    -0.38300
N1090       N  0.38713632  0.86825235  0.00611538    -0.39900
N1091       N  0.40427328  0.85772591  0.19430186    -0.37600
N1092       N  0.45646737  0.86961743  0.13455586    -0.40000
N1093       N  0.39813284  0.80386169  0.07605899    -0.39800
N1094       N  0.45530460  0.80524863  0.53517304    -0.37400
N1095       N  0.50071200  0.92760967  0.99806052    -0.38500
N1096       N  0.44791861  0.92690074  0.04975055    -0.40100
C1097       C  0.43227105  0.88392637  0.29599404    -0.05100
C1098       C  0.42733080  0.86350474  0.31436355     0.09100
C1099       C  0.40507483  0.84191614  0.31078952    -0.02400
C1100       C  0.38720556  0.84106921  0.29015482    -0.00700
C1101       C  0.39167646  0.86184778  0.27240272    -0.04300
C1102       C  0.41466801  0.88306823  0.27480306     0.02700
C1103       C  0.44474636  0.86521855  0.33945566     0.09500
C1104       C  0.40030258  0.82078772  0.32936609     0.35400
C1105       C  0.42038367  0.90410075  0.25545892     0.38900
C1106       C  0.44105286  0.86954413  0.37145366    -0.04700
C1107       C  0.45667665  0.87013357  0.39562625     0.02500
C1108       C  0.47611339  0.86641780  0.38787881    -0.04300
C1109       C  0.48012634  0.86260962  0.35573777    -0.00500
C1110       C  0.46443227  0.86198403  0.33156073    -0.03100
C1111       C  0.42086972  0.87302095  0.37950231     0.36200
C1112       C  0.50067376  0.85977405  0.34753692     0.39800
C1113       C  0.45204450  0.87355253  0.42858633     0.38900
C1114       C  0.46834248  0.85779254  0.29861813     0.35900
C1115       C  0.45525695  0.90608681  0.29977464     0.36500
C1116       C  0.36379692  0.81913553  0.28896960     0.39800
N1117       N  0.44800378  0.87619903  0.45475282    -0.38300
N1118       N  0.40472768  0.87572555  0.38585291    -0.39900
N1119       N  0.51714013  0.85761075  0.34115530    -0.37600
N1120       N  0.47147467  0.85448160  0.27230840    -0.40000
N1121       N  0.39654994  0.80400649  0.34426153    -0.39800
N1122       N  0.34520562  0.80153973  0.28831611    -0.37400
N1123       N  0.42494171  0.92089039  0.24006361    -0.38500
N1124       N  0.47359669  0.92373584  0.30295879    -0.40100
C1125       C  0.24678355  0.88076905  0.27946206    -0.05100
C1126       C  0.25006919  0.90430943  0.27979173     0.09100
C1127       C  0.26506895  0.92118738  0.25651984    -0.02400
C1128       C  0.27841347  0.91524447  0.23498731    -0.00700
C1129       C  0.27670156  0.89236753  0.23649530    -0.04300
C1130       C  0.25971857  0.87471437  0.25749157     0.02700
C1131       C  0.23802738  0.91160408  0.30473299     0.09500
C1132       C  0.26733803  0.94495191  0.25552638     0.35400
C1133       C  0.25569624  0.85026692  0.25654024     0.38900
C1134       C  0.25030416  0.92293938  0.33334694    -0.04700
C1135       C  0.24074816  0.93363462  0.35407526     0.02500
C1136       C  0.21938176  0.93365414  0.34557180    -0.04300
C1137       C  0.20514586  0.91852271  0.32030617    -0.00500
C1138       C  0.21467279  0.90805645  0.29937692    -0.03100
C1139       C  0.27318231  0.92440032  0.34071306     0.36200
C1140       C  0.18052180  0.91351077  0.31630551     0.39800
C1141       C  0.25300521  0.94491499  0.38366007     0.38900
C1142       C  0.20092667  0.89458949  0.27161891     0.35900
C1143       C  0.23082837  0.86311096  0.30258259     0.36500
C1144       C  0.29435266  0.93281675  0.21184112     0.39800
N1145       N  0.26263106  0.95369157  0.40748745    -0.38300
N1146       N  0.29143041  0.92550219  0.34655798    -0.39900
N1147       N  0.16065118  0.90894279  0.31347646    -0.37600
N1148       N  0.18993193  0.88387972  0.24944660    -0.40000
N1149       N  0.26903766  0.96387257  0.25485006    -0.39800
N1150       N  0.30680723  0.94675802  0.19305661    -0.37400
N1151       N  0.25207541  0.83061327  0.25545833    -0.38500
N1152       N  0.21816559  0.84908355  0.32114819    -0.40100
C1153       C  0.39198282  0.98654575  0.15978078    -0.05100
C1154       C  0.40625333  0.98509229  0.13489953     0.09100
C1155       C  0.41112075  0.96581556  0.13502071    -0.02400
C1156       C  0.40019607  0.94723468  0.15802398    -0.00700
C1157       C  0.38376428  0.94725540  0.18066741    -0.04300
C1158       C  0.38091942  0.96775566  0.18266771     0.02700
C1159       C  0.41638987  0.00402289  0.10894093     0.09500
C1160       C  0.42665095  0.96461934  0.11067954     0.35400
C1161       C  0.36635928  0.96927288  0.20809432     0.38900
C1162       C  0.44098297  0.02222715  0.10941940    -0.04700
C1163       C  0.44991640  0.04122848  0.08691498     0.02500
C1164       C  0.43409312  0.04313592  0.06488827    -0.04300
C1165       C  0.40997530  0.02394120  0.06270932    -0.00500
C1166       C  0.40129341  0.00423528  0.08427993    -0.03100
C1167       C  0.45676515  0.02225924  0.13437198     0.36200
C1168       C  0.39356379  0.02548875  0.04013583     0.39800
C1169       C  0.47523199  0.05988599  0.08771492     0.38900
C1170       C  0.37653321  0.98458677  0.08190425     0.35900
C1171       C  0.38820796  0.00711276  0.16128855     0.36500
C1172       C  0.40567442  0.92779910  0.15828135     0.39800
N1173       N  0.49541122  0.07476745  0.08830984    -0.38300
N1174       N  0.46928309  0.02229497  0.15440134    -0.39900
N1175       N  0.38046775  0.02679434  0.02218490    -0.37600
N1176       N  0.35679194  0.96884167  0.07993489    -0.40000
N1177       N  0.43911754  0.96379021  0.09126429    -0.39800
N1178       N  0.41060061  0.91266006  0.15877613    -0.37400
N1179       N  0.35512148  0.97065528  0.22882885    -0.38500
N1180       N  0.38520724  0.02355250  0.16235003    -0.40100
C1181       C  0.87210608  0.77103767  0.27667073    -0.05100
C1182       C  0.88279582  0.78792542  0.25173268     0.09100
C1183       C  0.87742987  0.80671095  0.24824037    -0.02400
C1184       C  0.86141960  0.80864862  0.26957618    -0.00700
C1185       C  0.85079800  0.79188699  0.29493664    -0.04300
C1186       C  0.85640151  0.77318122  0.29849586     0.02700
C1187       C  0.89964973  0.78601338  0.22870282     0.09500
C1188       C  0.88817403  0.82386662  0.22224213     0.35400
C1189       C  0.84693773  0.75679098  0.32537613     0.38900
C1190       C  0.89120498  0.77566386  0.19830812    -0.04700
C1191       C  0.90752823  0.77631946  0.17512237     0.02500
C1192       C  0.93247955  0.78713176  0.18239738    -0.04300
C1193       C  0.94065337  0.79631549  0.21354610    -0.00500
C1194       C  0.92430486  0.79593835  0.23649014    -0.03100
C1195       C  0.86567773  0.76475059  0.19078057     0.36200
C1196       C  0.96581352  0.80579135  0.22229150     0.39800
C1197       C  0.89865031  0.76683014  0.14338839     0.38900
C1198       C  0.93290011  0.80617124  0.26799186     0.35900
C1199       C  0.87705595  0.75126899  0.27946690     0.36500
C1200       C  0.85540752  0.82756502  0.26465136     0.39800
N1201       N  0.89154058  0.75928049  0.11808461    -0.38300
N1202       N  0.84529778  0.75604371  0.18488218    -0.39900
N1203       N  0.98586470  0.81332073  0.22928249    -0.37600
N1204       N  0.93977074  0.81431839  0.29312116    -0.40000
N1205       N  0.89667452  0.83742609  0.20139572    -0.39800
N1206       N  0.85073823  0.84271740  0.26064205    -0.37400
N1207       N  0.83969732  0.74385141  0.34701477    -0.38500
N1208       N  0.88096209  0.73544853  0.28144128    -0.40100
C1209       C  0.85651157  0.78442290  0.48980583    -0.05100
C1210       C  0.88148151  0.80122738  0.48820865     0.09100
C1211       C  0.88992569  0.82114194  0.46748223    -0.02400
C1212       C  0.87363689  0.82396098  0.44768111    -0.00700
C1213       C  0.84839849  0.80700201  0.44882746    -0.04300
C1214       C  0.83997102  0.78736910  0.47048244     0.02700
C1215       C  0.89904823  0.79848008  0.00898222     0.09500
C1216       C  0.91559334  0.83874521  0.46646516     0.35400
C1217       C  0.81446800  0.76948121  0.47210969     0.38900
C1218       C  0.91205202  0.78763494  0.49700648    -0.04700
C1219       C  0.92992593  0.78671431  0.01588926     0.02500
C1220       C  0.93489258  0.79660520  0.04714449    -0.04300
C1221       C  0.92160600  0.80739914  0.05906079    -0.00500
C1222       C  0.90379779  0.80823172  0.04005506    -0.03100
C1223       C  0.90686701  0.77734477  0.46510793     0.36200
C1224       C  0.92566602  0.81727668  0.09121529     0.39800
C1225       C  0.94385224  0.77648814  0.50257197     0.38900
C1226       C  0.89020708  0.81913810  0.05246876     0.35900
C1227       C  0.84796102  0.76377747  0.51094132     0.36500
C1228       C  0.88324779  0.84444253  0.42605640     0.39800
N1229       N  0.95500125  0.76840612  0.49183315    -0.38300
N1230       N  0.90261440  0.76908554  0.43968385    -0.39900
N1231       N  0.92886454  0.82527577  0.11676208    -0.37600
N1232       N  0.87927788  0.82773499  0.06234195    -0.40000
N1233       N  0.93605154  0.85274781  0.46571799    -0.39800
N1234       N  0.89119014  0.86070876  0.40870191    -0.37400
N1235       N  0.79416288  0.75510802  0.47377831    -0.38500
N1236       N  0.84115126  0.74720368  0.02766173    -0.40100
C1237       C  0.09427219  0.87476118  0.03085612    -0.05100
C1238       C  0.08451009  0.87919745  0.00319442     0.09100
C1239       C  0.05934556  0.86686632  0.99823210    -0.02400
C1240       C  0.04382535  0.85076764  0.02153378    -0.00700
C1241       C  0.05343120  0.84750440  0.05045005    -0.04300
C1242       C  0.07882060  0.85931148  0.05474828     0.02700
C1243       C  0.10086171  0.89804285  0.48029918     0.09500
C1244       C  0.04949093  0.87107828  0.46935806     0.35400
C1245       C  0.08918695  0.85682149  0.08437742     0.38900
C1246       C  0.10710382  0.89143984  0.45120458    -0.04700
C1247       C  0.12373947  0.90946652  0.43060183     0.02500
C1248       C  0.13420167  0.93407252  0.43918761    -0.04300
C1249       C  0.12765136  0.94065271  0.46812857    -0.00500
C1250       C  0.11074568  0.92265656  0.48843897    -0.03100
C1251       C  0.09665267  0.86609850  0.44278817     0.36200
C1252       C  0.13941513  0.96579578  0.47810848     0.39800
C1253       C  0.13009944  0.90268184  0.40063527     0.38900
C1254       C  0.10379830  0.92939758  0.51806394     0.35900
C1255       C  0.12031667  0.88652014  0.03486393     0.36500
C1256       C  0.01797323  0.83751975  0.01543709     0.39800
N1257       N  0.13505371  0.89708901  0.37676461    -0.38300
N1258       N  0.08814434  0.84589847  0.93606003    -0.39900
N1259       N  0.14885894  0.98572277  0.48657909    -0.37600
N1260       N  0.09825981  0.93473147  0.54170548    -0.40000
N1261       N  0.04163325  0.87441770  0.44625457    -0.39800
N1262       N  0.99738661  0.82707507  0.01046279    -0.37400
N1263       N  0.09750950  0.85498086  0.10804388    -0.38500
N1264       N  0.14108785  0.89588510  0.03788895    -0.40100
C1265       C  0.08552209  0.89638355  0.19568758    -0.05100
C1266       C  0.08912923  0.89126233  0.22727012     0.09100
C1267       C  0.07520933  0.86746052  0.23908825    -0.02400
C1268       C  0.05795589  0.84879903  0.21926910    -0.00700
C1269       C  0.05409400  0.85394413  0.18765447    -0.04300
C1270       C  0.06816271  0.87792096  0.17596806     0.02700
C1271       C  0.10743454  0.91124001  0.24807640     0.09500
C1272       C  0.07850585  0.86228917  0.27182152     0.35400
C1273       C  0.06546836  0.88367915  0.14321895     0.38900
C1274       C  0.09995751  0.92302098  0.26988775    -0.04700
C1275       C  0.11714056  0.94239414  0.28870972     0.02500
C1276       C  0.14216659  0.94978767  0.28675267    -0.04300
C1277       C  0.14966397  0.93880808  0.26326188    -0.00500
C1278       C  0.13232794  0.91944140  0.24444315    -0.03100
C1279       C  0.07441420  0.91513012  0.27291449     0.36200
C1280       C  0.17509744  0.94682196  0.25862563     0.39800
C1281       C  0.10889270  0.95530332  0.30902383     0.38900
C1282       C  0.14004617  0.90757983  0.22153581     0.35900
C1283       C  0.09971965  0.92085115  0.18353890     0.36500
C1284       C  0.04385319  0.82445468  0.23171104     0.39800
N1285       N  0.10225812  0.96563195  0.32503713    -0.38300
N1286       N  0.05403266  0.90872957  0.27540538    -0.39900
N1287       N  0.19534745  0.95308844  0.25480839    -0.37600
N1288       N  0.14614809  0.89808291  0.20324455    -0.40000
N1289       N  0.08104378  0.85823762  0.29802437    -0.39800
N1290       N  0.03264401  0.80500016  0.24159486    -0.37400
N1291       N  0.06343009  0.88846726  0.11717894    -0.38500
N1292       N  0.11112695  0.94037350  0.17395915    -0.40100
C1293       C  0.06327342  0.69953205  0.05388199    -0.05100
C1294       C  0.03985984  0.69049034  0.04089561     0.09100
C1295       C  0.02980845  0.66937868  0.02186448    -0.02400
C1296       C  0.04390784  0.65883781  0.01326584    -0.00700
C1297       C  0.06838382  0.66977607  0.02294281    -0.04300
C1298       C  0.07764586  0.68948212  0.04448947     0.02700
C1299       C  0.02671078  0.70437287  0.04509736     0.09500
C1300       C  0.00545375  0.65944818  0.00946541     0.35400
C1301       C  0.10255534  0.70040074  0.05524576     0.38900
C1302       C  0.03517407  0.72681243  0.02945011    -0.04700
C1303       C  0.02458319  0.74120938  0.03596245     0.02500
C1304       C  0.00482318  0.73288510  0.05715021    -0.04300
C1305       C  0.99469522  0.70928456  0.06994559    -0.00500
C1306       C  0.00612065  0.69546200  0.06487000    -0.03100
C1307       C  0.05551845  0.73556990  0.50765206     0.36200
C1308       C  0.97351941  0.69987108  0.09029291     0.39800
C1309       C  0.03461107  0.76508941  0.02193656     0.38900
C1310       C  0.99771560  0.67280659  0.08167657     0.35900
C1311       C  0.07294785  0.71990982  0.07575725     0.36500
C1312       C  0.03394149  0.63822670  0.99173636     0.39800
N1313       N  0.04261999  0.78417503  0.51085487    -0.38300
N1314       N  0.07179698  0.74256916  0.49039496    -0.39900
N1315       N  0.95650412  0.69223562  0.10630274    -0.37600
N1316       N  0.99124558  0.65477593  0.09510893    -0.40000
N1317       N  0.98594634  0.65164312  0.99988684    -0.39800
N1318       N  0.02597286  0.62180641  0.97453845    -0.37400
N1319       N  0.12247221  0.70915998  0.06360180    -0.38500
N1320       N  0.08064869  0.73616280  0.09322072    -0.40100
C1321       C  0.20095304  0.72919084  0.07783631    -0.05100
C1322       C  0.21285457  0.75438162  0.07302541     0.09100
C1323       C  0.20844898  0.76379323  0.04500505    -0.02400
C1324       C  0.19304162  0.74802867  0.02109352    -0.00700
C1325       C  0.18180090  0.72263698  0.02521328    -0.04300
C1326       C  0.18546050  0.71333645  0.05409085     0.02700
C1327       C  0.23151440  0.77097608  0.09635390     0.09500
C1328       C  0.22030239  0.78978072  0.04052047     0.35400
C1329       C  0.17312099  0.68744668  0.05970285     0.38900
C1330       C  0.25519884  0.77471286  0.09445914    -0.04700
C1331       C  0.27324067  0.79097019  0.11550169     0.02500
C1332       C  0.26772513  0.80373106  0.13856508    -0.04300
C1333       C  0.24389732  0.79980625  0.14060024    -0.00500
C1334       C  0.22580006  0.78330814  0.11965970    -0.03100
C1335       C  0.26110978  0.76220651  0.07021817     0.36200
C1336       C  0.23791700  0.81260332  0.16427863     0.39800
C1337       C  0.29782061  0.79552202  0.11214463     0.38900
C1338       C  0.20129640  0.77904892  0.12186556     0.35900
C1339       C  0.20492938  0.71964536  0.10721279     0.36500
C1340       C  0.18990855  0.75810311  0.49162075     0.39800
N1341       N  0.31742774  0.79921846  0.10945856    -0.38300
N1342       N  0.26577920  0.75222602  0.05085011    -0.39900
N1343       N  0.23303537  0.82282754  0.18302153    -0.37600
N1344       N  0.18171787  0.77558255  0.12354296    -0.40000
N1345       N  0.22970809  0.81051389  0.03706349    -0.39800
N1346       N  0.18738537  0.76616013  0.46815600    -0.37400
N1347       N  0.16335803  0.66680771  0.06418205    -0.38500
N1348       N  0.20813641  0.71210173  0.13068276    -0.40100
C1349       C  0.23162022  0.75515207  0.38193524    -0.05100
C1350       C  0.22648648  0.76240675  0.35262343     0.09100
C1351       C  0.20230833  0.75156738  0.34184546    -0.02400
C1352       C  0.18338709  0.73306428  0.35991520    -0.00700
C1353       C  0.18844827  0.72585004  0.38953161    -0.04300
C1354       C  0.21274617  0.73751389  0.40071045     0.02700
C1355       C  0.24688195  0.78027753  0.33213723     0.09500
C1356       C  0.19702872  0.75939593  0.31193093     0.35400
C1357       C  0.21851219  0.73209712  0.43210896     0.38900
C1358       C  0.25640198  0.77180369  0.30842108    -0.04700
C1359       C  0.27623330  0.78821293  0.28981561     0.02500
C1360       C  0.28589779  0.81370631  0.29299929    -0.04300
C1361       C  0.27665985  0.82209182  0.31781596    -0.00500
C1362       C  0.25748770  0.80538353  0.33746508    -0.03100
C1363       C  0.24558420  0.74594164  0.30303866     0.36200
C1364       C  0.28609703  0.84775017  0.32288245     0.39800
C1365       C  0.28685533  0.77836019  0.26801390     0.38900
C1366       C  0.24840570  0.81392147  0.36317068     0.35900
C1367       C  0.25652789  0.76560427  0.39251580     0.36500
C1368       C  0.15894611  0.72086218  0.34733342     0.39800
N1369       N  0.29521212  0.77037484  0.25069366    -0.38300
N1370       N  0.23684595  0.72535417  0.29854682    -0.39900
N1371       N  0.29338942  0.86817298  0.32714747    -0.37600
N1372       N  0.24113672  0.82054028  0.38387473    -0.40000
N1373       N  0.19291416  0.76579789  0.28810640    -0.39800
N1374       N  0.13946441  0.71103173  0.33718832    -0.37400
N1375       N  0.22316787  0.72787940  0.45714278    -0.38500
N1376       N  0.27639663  0.77382227  0.40083669    -0.40100
C1377       C  0.94415240  0.64434524  0.24351229    -0.05100
C1378       C  0.94697002  0.64805238  0.21037370     0.09100
C1379       C  0.93635132  0.62786383  0.18952480    -0.02400
C1380       C  0.92214806  0.60415116  0.20191390    -0.00700
C1381       C  0.91705294  0.60078294  0.23488902    -0.04300
C1382       C  0.92825540  0.62123834  0.25561363     0.02700
C1383       C  0.95811819  0.67347806  0.19819475     0.09500
C1384       C  0.93887381  0.63161917  0.15532846     0.35400
C1385       C  0.92253754  0.61943229  0.28939953     0.38900
C1386       C  0.98146802  0.68531347  0.18465312     0.06100
C1387       C  0.99177347  0.70952263  0.17411108     0.02500
C1388       C  0.97915719  0.72236231  0.17839640    -0.04300
C1389       C  0.95657390  0.71093294  0.19425045    -0.00500
C1390       C  0.94572066  0.68642102  0.20287531    -0.03100
C1391       C  0.99461574  0.67237454  0.18093678     0.36200
C1392       C  0.94405022  0.72424888  0.20083134     0.39800
C1393       C  0.01440309  0.72042167  0.15664400     0.38900
C1394       C  0.92134269  0.67422887  0.21576348     0.35900
C1395       C  0.95654322  0.66481362  0.26519038     0.36500
C1396       C  0.91145528  0.58352798  0.18057318     0.39800
N1397       N  0.03234810  0.72901236  0.14245877    -0.38300
N1398       N  0.00507771  0.66201241  0.17793507    -0.39900
N1399       N  0.93404960  0.73482592  0.20603797    -0.37600
N1400       N  0.90188738  0.66444353  0.22591801    -0.40000
N1401       N  0.94072474  0.63459020  0.12799173    -0.39800
N1402       N  0.90300404  0.56707504  0.16345230    -0.37400
N1403       N  0.91830148  0.61950885  0.31625375    -0.38500
N1404       N  0.96632206  0.68110984  0.28241636    -0.40100
C1405       C  0.79856148  0.55997189  0.18636889    -0.05100
C1406       C  0.77447474  0.54160857  0.18109530     0.09100
C1407       C  0.76434105  0.52054354  0.19998946    -0.02400
C1408       C  0.77820462  0.51774454  0.22403260    -0.00700
C1409       C  0.80256008  0.53593728  0.22917678    -0.04300
C1410       C  0.81263845  0.55715722  0.21022337     0.02700
C1411       C  0.75932095  0.54415079  0.15581411     0.09500
C1412       C  0.73952427  0.50165310  0.19447306     0.35400
C1413       C  0.83774799  0.57575505  0.21413894     0.38900
C1414       C  0.75753588  0.53405158  0.12525878    -0.04700
C1415       C  0.73996298  0.53240411  0.10332090     0.02500
C1416       C  0.72409633  0.54098404  0.11181540    -0.04300
C1417       C  0.72716390  0.55268252  0.14173527    -0.00500
C1418       C  0.74470745  0.55420524  0.16358529    -0.03100
C1419       C  0.77342763  0.52476828  0.11682840     0.36200
C1420       C  0.71137923  0.56191807  0.15107349     0.39800
C1421       C  0.73826744  0.52183808  0.07204575     0.38900
C1422       C  0.74714216  0.56528626  0.19468979     0.35900
C1423       C  0.80891023  0.58162794  0.16690293     0.36500
C1424       C  0.76707609  0.49627922  0.24391864     0.39800
N1425       N  0.73699009  0.51338715  0.04712990    -0.38300
N1426       N  0.78618511  0.51743189  0.11018655    -0.39900
N1427       N  0.69885650  0.56935156  0.15856146    -0.37600
N1428       N  0.74912918  0.57412744  0.21949766    -0.40000
N1429       N  0.71974782  0.48665390  0.18985680    -0.39800
N1430       N  0.75815299  0.47913756  0.25971682    -0.37400
N1431       N  0.85774556  0.59080381  0.21681268    -0.38500
N1432       N  0.81719682  0.59891686  0.15138816    -0.40100
C1433       C  0.77910553  0.54914846  0.38121296    -0.05100
C1434       C  0.76283402  0.52892313  0.39941177     0.09100
C1435       C  0.76554831  0.50826036  0.40015617    -0.02400
C1436       C  0.78394257  0.50753258  0.38213960    -0.00700
C1437       C  0.80010462  0.52766303  0.36355254    -0.04300
C1438       C  0.79769234  0.54859641  0.36350637     0.02700
C1439       C  0.74330410  0.52957360  0.41880094     0.09500
C1440       C  0.74951968  0.48785529  0.41995506     0.35400
C1441       C  0.81376219  0.56935922  0.34422973     0.38900
C1442       C  0.71893721  0.51696248  0.40847519    -0.04700
C1443       C  0.70029983  0.51526988  0.42853349     0.02500
C1444       C  0.70600756  0.52686576  0.45863797    -0.04300
C1445       C  0.73058075  0.54104857  0.46779475    -0.00500
C1446       C  0.74905728  0.54195681  0.44830757    -0.03100
C1447       C  0.71303904  0.50535997  0.37739603     0.36200
C1448       C  0.73691002  0.55492751  0.99723374     0.39800
C1449       C  0.67521273  0.50046540  0.41898248     0.38900
C1450       C  0.77398700  0.55498081  0.45911462     0.35900
C1451       C  0.77653874  0.57049271  0.38049486     0.36500
C1452       C  0.78659506  0.48626988  0.38345299     0.39800
N1453       N  0.65516596  0.48857684  0.41151877    -0.38300
N1454       N  0.70831910  0.49617122  0.35253259    -0.39900
N1455       N  0.74196896  0.56608626  0.02064896    -0.37600
N1456       N  0.79388388  0.56528804  0.46770732    -0.40000
N1457       N  0.73666879  0.47170191  0.43589100    -0.39800
N1458       N  0.78867766  0.46927968  0.38467330    -0.37400
N1459       N  0.82660679  0.58592464  0.32889071    -0.38500
N1460       N  0.77452902  0.58754202  0.38000580    -0.40100
C1461       C  0.96148778  0.60507831  0.38604678    -0.05100
C1462       C  0.98141035  0.61535063  0.36480080     0.09100
C1463       C  0.97719537  0.61133509  0.33182950    -0.02400
C1464       C  0.95421122  0.59415162  0.32055569    -0.00700
C1465       C  0.93403646  0.58349014  0.34159274    -0.04300
C1466       C  0.93766899  0.59002878  0.37421404     0.02700
C1467       C  0.00710494  0.62724547  0.37648681     0.09500
C1468       C  0.99698030  0.62427275  0.30948486     0.35400
C1469       C  0.91720027  0.58024956  0.39575527     0.38900
C1470       C  0.02061195  0.61546488  0.37130372    -0.04700
C1471       C  0.04517811  0.62680746  0.37989251     0.02500
C1472       C  0.05608956  0.64905847  0.39664129    -0.04300
C1473       C  0.04276965  0.66112546  0.40135749    -0.00500
C1474       C  0.01862322  0.65060852  0.39021763    -0.03100
C1475       C  0.00906575  0.59128298  0.35765907     0.36200
C1476       C  0.05317357  0.68343093  0.41958936     0.39800
C1477       C  0.05914781  0.61513436  0.37227336     0.38900
C1478       C  0.00560710  0.66374992  0.39284986     0.35900
C1479       C  0.96558543  0.60922756  0.42005874     0.36500
C1480       C  0.95211147  0.58691907  0.28728867     0.39800
N1481       N  0.07026715  0.60584684  0.36615763    -0.38300
N1482       N  0.99987353  0.57203040  0.34675863    -0.39900
N1483       N  0.06135464  0.70113338  0.43436628    -0.37600
N1484       N  0.99521227  0.67425807  0.39467587    -0.40000
N1485       N  0.01271512  0.63466199  0.29171633    -0.39800
N1486       N  0.95159912  0.58127460  0.26089195    -0.37400
N1487       N  0.90081447  0.57254559  0.41290615    -0.38500
N1488       N  0.96883432  0.61248070  0.44725333    -0.40100
C1489       C  0.74148365  0.21817459  0.39026423    -0.05100
C1490       C  0.76614661  0.22651392  0.38358299     0.09100
C1491       C  0.77200412  0.21540465  0.35856968    -0.02400
C1492       C  0.75347081  0.19617174  0.34064005    -0.00700
C1493       C  0.72879514  0.18738492  0.34797020    -0.04300
C1494       C  0.72298990  0.19854008  0.37297432     0.02700
C1495       C  0.78565770  0.24569063  0.40461353     0.09500
C1496       C  0.79716623  0.22373527  0.35134827     0.35400
C1497       C  0.69792775  0.18917891  0.38187782     0.38900
C1498       C  0.78876196  0.23975433  0.43608013    -0.04700
C1499       C  0.80559481  0.25771111  0.45693707     0.02500
C1500       C  0.81919405  0.28216559  0.44712474    -0.04300
C1501       C  0.81693010  0.28801266  0.41519708    -0.00500
C1502       C  0.80034893  0.26982411  0.39398856    -0.03100
C1503       C  0.77404010  0.21511899  0.44737940     0.36200
C1504       C  0.83074987  0.31289978  0.40459742     0.39800
C1505       C  0.80899932  0.25089875  0.48873209     0.38900
C1506       C  0.79784879  0.27608283  0.36150893     0.35900
C1507       C  0.73513076  0.22987157  0.41512795     0.36500
C1508       C  0.75982461  0.18599220  0.31385786     0.39800
N1509       N  0.81171601  0.24546329  0.51408387    -0.38300
N1510       N  0.76207388  0.19553030  0.45646012    -0.39900
N1511       N  0.84176886  0.33277483  0.39614127    -0.37600
N1512       N  0.79595613  0.28103799  0.33550137    -0.40000
N1513       N  0.81726329  0.23047335  0.34552852    -0.39800
N1514       N  0.76485493  0.17794582  0.29235718    -0.37400
N1515       N  0.67798674  0.18159805  0.38937353    -0.38500
N1516       N  0.73012279  0.23924831  0.43497206    -0.40100
C1517       C  0.78708087  0.24561975  0.15273982    -0.05100
C1518       C  0.76365324  0.22970485  0.14112009     0.09100
C1519       C  0.75801160  0.23091541  0.10883735    -0.02400
C1520       C  0.77556345  0.24860004  0.08844885    -0.00700
C1521       C  0.79914501  0.26445898  0.10001848    -0.04300
C1522       C  0.80488162  0.26261871  0.13220743     0.02700
C1523       C  0.74514494  0.21166315  0.16337003     0.09500
C1524       C  0.73424460  0.21372539  0.09663208     0.35400
C1525       C  0.82896204  0.27869320  0.14465924     0.38900
C1526       C  0.73050585  0.21792624  0.18153322    -0.04700
C1527       C  0.71549490  0.20238574  0.20584319     0.02500
C1528       C  0.71488837  0.18018206  0.21212736    -0.04300
C1529       C  0.72959098  0.17397899  0.19339191    -0.00500
C1530       C  0.74437304  0.18955081  0.16898701    -0.03100
C1531       C  0.73167164  0.24093224  0.17593381     0.36200
C1532       C  0.73035653  0.15200092  0.19954478     0.39800
C1533       C  0.70212220  0.21034009  0.22570597     0.38900
C1534       C  0.75946241  0.18319920  0.15008194     0.35900
C1535       C  0.79274356  0.24462114  0.18610360     0.36500
C1536       C  0.76944123  0.25010227  0.05550172     0.39800
N1537       N  0.69159187  0.21681622  0.24157156    -0.38300
N1538       N  0.73266559  0.25930392  0.17147782    -0.39900
N1539       N  0.73149243  0.13477171  0.20464053    -0.37600
N1540       N  0.77151651  0.17818859  0.13497544    -0.40000
N1541       N  0.71532096  0.19984405  0.08689510    -0.39800
N1542       N  0.76438865  0.25122351  0.02925817    -0.37400
N1543       N  0.84818899  0.29138468  0.15456907    -0.38500
N1544       N  0.79712434  0.24381548  0.21274367    -0.40100
C1545       C  0.84107379  0.42075693  0.20964711    -0.05100
C1546       C  0.85064629  0.42535971  0.17847638     0.09100
C1547       C  0.86058138  0.44897239  0.16597520    -0.02400
C1548       C  0.86130898  0.46793413  0.18461468    -0.00700
C1549       C  0.85191996  0.46353349  0.21613574    -0.04300
C1550       C  0.84163237  0.43955359  0.22835516     0.02700
C1551       C  0.85027338  0.40527485  0.15882043     0.09500
C1552       C  0.87001362  0.45368775  0.13367898     0.35400
C1553       C  0.83235329  0.43404008  0.26074534     0.38900
C1554       C  0.82916543  0.38875639  0.14216059    -0.04700
C1555       C  0.82901313  0.37043420  0.12289663     0.02500
C1556       C  0.85005724  0.36832550  0.11989143    -0.04300
C1557       C  0.87092562  0.38434503  0.13763209    -0.00500
C1558       C  0.87098355  0.40268150  0.15694713    -0.03100
C1559       C  0.80758388  0.39080904  0.14454599     0.36200
C1560       C  0.89275187  0.38278215  0.13509695     0.39800
C1561       C  0.80697692  0.35361556  0.10618277     0.38900
C1562       C  0.89249771  0.41918576  0.17474310     0.35900
C1563       C  0.83091435  0.39655062  0.22266987     0.36500
C1564       C  0.87128858  0.49183835  0.17084151     0.39800
N1565       N  0.78948745  0.34023115  0.09269788    -0.38300
N1566       N  0.79031415  0.39235451  0.14645580    -0.39900
N1567       N  0.91029422  0.38171709  0.13341168    -0.37600
N1568       N  0.90960135  0.43243412  0.18901272    -0.40000
N1569       N  0.87751791  0.45735824  0.10789266    -0.39800
N1570       N  0.87929348  0.51088350  0.15968351    -0.37400
N1571       N  0.82492032  0.42943604  0.28653858    -0.38500
N1572       N  0.82281421  0.37722808  0.23297761    -0.40100
C1573       C  0.87431676  0.44016420  0.36604503    -0.05100
C1574       C  0.86606807  0.44032357  0.39722818     0.09100
C1575       C  0.85869353  0.45704126  0.40559673    -0.02400
C1576       C  0.85848823  0.47286216  0.38240103    -0.00700
C1577       C  0.86491519  0.47145564  0.35043544    -0.04300
C1578       C  0.87384468  0.45575403  0.34264636     0.02700
C1579       C  0.86498343  0.42264004  0.42126156     0.09500
C1580       C  0.85124030  0.45783884  0.43809968     0.35400
C1581       C  0.88219913  0.45522997  0.31058200     0.38900
C1582       C  0.88576090  0.42758381  0.43872988    -0.04700
C1583       C  0.88511744  0.41040287  0.46040184     0.02500
C1584       C  0.86332467  0.38807003  0.46523539    -0.04300
C1585       C  0.84242633  0.38333961  0.44729553    -0.00500
C1586       C  0.84335500  0.40061701  0.42556713    -0.03100
C1587       C  0.90800118  0.45034836  0.43383646     0.36200
C1588       C  0.82017916  0.36020412  0.44935433     0.39800
C1589       C  0.90731211  0.41585190  0.47674900     0.38900
C1590       C  0.82216384  0.39551580  0.40681830     0.35900
C1591       C  0.88300879  0.42368574  0.35805608     0.36500
C1592       C  0.85283231  0.49139779  0.39181082     0.39800
N1593       N  0.92534084  0.42034336  0.48899477    -0.38300
N1594       N  0.92568936  0.46848767  0.42979029    -0.39900
N1595       N  0.80243400  0.34176990  0.45077647    -0.37600
N1596       N  0.80531724  0.39146952  0.39180174    -0.40000
N1597       N  0.84526819  0.45841267  0.46402906    -0.39800
N1598       N  0.84866343  0.50639814  0.39936308    -0.37400
N1599       N  0.88906031  0.45485195  0.28511727    -0.38500
N1600       N  0.89001988  0.41058355  0.35183966    -0.40100
C1601       C  0.93103893  0.28045908  0.47425539    -0.05100
C1602       C  0.91612543  0.25524125  0.47069583     0.09100
C1603       C  0.89481416  0.24300635  0.48929391    -0.02400
C1604       C  0.88771702  0.25620492  0.50962107    -0.00700
C1605       C  0.90178003  0.28168600  0.01123587    -0.04300
C1606       C  0.92404977  0.29356166  0.99449828     0.02700
C1607       C  0.92504035  0.24185689  0.45029412     0.09500
C1608       C  0.88014479  0.21691130  0.48726370     0.35400
C1609       C  0.93974060  0.31956381  0.99755221     0.38900
C1610       C  0.93752371  0.23163601  0.46512853    -0.04700
C1611       C  0.95180760  0.22491101  0.44694835     0.02500
C1612       C  0.95329475  0.22754347  0.41281827    -0.04300
C1613       C  0.93926907  0.23633181  0.39788209    -0.00500
C1614       C  0.92526242  0.24344384  0.41656637    -0.03100
C1615       C  0.93662120  0.22916381  0.49971550     0.36200
C1616       C  0.94056221  0.23985048  0.36361318     0.39800
C1617       C  0.96526141  0.21580282  0.46450427     0.38900
C1618       C  0.91169431  0.25329354  0.40124923     0.35900
C1619       C  0.95371158  0.29305139  0.45687280     0.36500
C1620       C  0.86584450  0.24371315  0.52843146     0.39800
N1621       N  0.97587385  0.20888114  0.47935509    -0.38300
N1622       N  0.93576655  0.22709705  0.02724190    -0.39900
N1623       N  0.94169351  0.24282539  0.33626481    -0.37600
N1624       N  0.90082244  0.26114059  0.38907874    -0.40000
N1625       N  0.86849838  0.19605428  0.48578753    -0.39800
N1626       N  0.84856973  0.23369432  0.54384543    -0.37400
N1627       N  0.95234111  0.34026404  0.99986748    -0.38500
N1628       N  0.97170713  0.30297122  0.44287108    -0.40100
C1629       C  0.05950029  0.19676273  0.22827878    -0.05100
C1630       C  0.08130525  0.19905369  0.24009910     0.09100
C1631       C  0.08522572  0.20039606  0.27327023    -0.02400
C1632       C  0.06721190  0.19835968  0.29460732    -0.00700
C1633       C  0.04468801  0.19497896  0.28315754    -0.04300
C1634       C  0.04130262  0.19486555  0.24964174     0.02700
C1635       C  0.09990005  0.19867351  0.21825453     0.09500
C1636       C  0.10796111  0.20362669  0.28552488     0.35400
C1637       C  0.01883534  0.19185689  0.23695227     0.38900
C1638       C  0.12048930  0.22038502  0.20879429    -0.04700
C1639       C  0.13948253  0.21996088  0.19175978     0.02500
C1640       C  0.13834547  0.19760191  0.18431965    -0.04300
C1641       C  0.11743042  0.17580602  0.19413967    -0.00500
C1642       C  0.09836992  0.17644946  0.21054059    -0.03100
C1643       C  0.12215176  0.24328000  0.21694242     0.36200
C1644       C  0.11546012  0.15243477  0.18844054     0.39800
C1645       C  0.15985522  0.24276048  0.18152874     0.38900
C1646       C  0.07712929  0.15407736  0.22013408     0.35900
C1647       C  0.05571063  0.19594710  0.19406714     0.36500
C1648       C  0.07268572  0.20081864  0.32851749     0.39800
N1649       N  0.17606729  0.26102210  0.17347728    -0.38300
N1650       N  0.12345751  0.26152357  0.22350505    -0.39900
N1651       N  0.11374847  0.13373717  0.18392143    -0.37600
N1652       N  0.06012942  0.13628618  0.22774181    -0.40000
N1653       N  0.12611382  0.20625567  0.29518913    -0.39800
N1654       N  0.07771948  0.20335054  0.35533817    -0.37400
N1655       N  0.00092877  0.18949289  0.22671252    -0.38500
N1656       N  0.05276727  0.19531390  0.16672563    -0.40100
C1657       C  0.08061098  0.20201812  0.48651679    -0.05100
C1658       C  0.09023615  0.18672548  0.48107054     0.09100
C1659       C  0.08351127  0.17190883  0.45365832    -0.02400
C1660       C  0.06785781  0.17311669  0.43090761    -0.00700
C1661       C  0.05875276  0.18907099  0.43577533    -0.04300
C1662       C  0.06483453  0.20314029  0.46410561     0.02700
C1663       C  0.10790932  0.18680974  0.00429406     0.09500
C1664       C  0.09257408  0.15530497  0.44910951     0.35400
C1665       C  0.05403135  0.21798661  0.47117738     0.38900
C1666       C  0.09989232  0.16960288  0.02903322    -0.04700
C1667       C  0.11621531  0.17114597  0.05276793     0.02500
C1668       C  0.14064986  0.18983450  0.05162902    -0.04300
C1669       C  0.14864063  0.20703960  0.02680034    -0.00500
C1670       C  0.13225782  0.20549942  0.00315460    -0.03100
C1671       C  0.07468875  0.15076954  0.03049626     0.36200
C1672       C  0.17371515  0.22617780  0.02530542     0.39800
C1673       C  0.10758669  0.15423519  0.07924805     0.38900
C1674       C  0.14024713  0.22330196  0.47778862     0.35900
C1675       C  0.08671791  0.21632794  0.51561560     0.36500
C1676       C  0.06159552  0.15828700  0.40232483     0.39800
N1677       N  0.10072486  0.14087591  0.10048596    -0.38300
N1678       N  0.05457852  0.13576729  0.03162968    -0.39900
N1679       N  0.19366088  0.24154384  0.02388650    -0.37600
N1680       N  0.14649273  0.23755676  0.45763846    -0.40000
N1681       N  0.09964374  0.14191175  0.44564480    -0.39800
N1682       N  0.05665999  0.14647382  0.37950643    -0.37400
N1683       N  0.04539214  0.22976941  0.47689595    -0.38500
N1684       N  0.09156706  0.22758624  0.03894745    -0.40100
C1685       C  0.94034800  0.11284686  0.49094553    -0.05100
C1686       C  0.92008594  0.11579055  0.49696891     0.09100
C1687       C  0.91905525  0.13506773  0.48190307    -0.02400
C1688       C  0.93649575  0.14937075  0.45884716    -0.00700
C1689       C  0.95756341  0.14769596  0.45459145    -0.04300
C1690       C  0.95942549  0.12933331  0.47096562     0.02700
C1691       C  0.89926432  0.09793068  0.01759038     0.09500
C1692       C  0.89982002  0.14006370  0.48969757     0.35400
C1693       C  0.98048712  0.12668950  0.46602072     0.38900
C1694       C  0.90284541  0.09540949  0.05035362    -0.04700
C1695       C  0.88386935  0.07757348  0.06908358     0.02500
C1696       C  0.86031350  0.06317752  0.05605377    -0.04300
C1697       C  0.85629749  0.06706662  0.02388039    -0.00500
C1698       C  0.87585131  0.08346366  0.50448448    -0.03100
C1699       C  0.92604069  0.11156198  0.06505816     0.36200
C1700       C  0.83216355  0.05422075  0.51045977     0.39800
C1701       C  0.88870494  0.07456419  0.10213936     0.38900
C1702       C  0.87182087  0.08507156  0.47068208     0.35900
C1703       C  0.94114294  0.09228842  0.50425035     0.36500
C1704       C  0.93085267  0.16314605  0.43660617     0.39800
N1705       N  0.89277363  0.07210841  0.12837556    -0.38300
N1706       N  0.94452188  0.12447094  0.07680499    -0.39900
N1707       N  0.81288171  0.04430833  0.49966530    -0.37600
N1708       N  0.86862052  0.08644874  0.44374473    -0.40000
N1709       N  0.88458883  0.14420319  0.49595685    -0.39800
N1710       N  0.92529592  0.17308174  0.41838964    -0.37400
N1711       N  0.99730713  0.12460453  0.46207332    -0.38500
N1712       N  0.94165978  0.07582911  0.01485808    -0.40100
C1713       C  0.89251104  0.11178145  0.29052520    -0.05100
C1714       C  0.89741724  0.10036312  0.26515388     0.09100
C1715       C  0.92118974  0.10511074  0.25984532    -0.02400
C1716       C  0.94030480  0.12224677  0.27880364    -0.00700
C1717       C  0.93562706  0.13439635  0.30372695    -0.04300
C1718       C  0.91155740  0.12869048  0.30992431     0.02700
C1719       C  0.87812792  0.08500965  0.24189340     0.09500
C1720       C  0.92597216  0.09270190  0.23422298     0.35400
C1721       C  0.90621516  0.13986252  0.33646495     0.38900
C1722       C  0.87604146  0.09543926  0.21331621    -0.04700
C1723       C  0.86029467  0.08072095  0.18904418     0.02500
C1724       C  0.84690267  0.05527030  0.19301077    -0.04300
C1725       C  0.84787359  0.04508683  0.22266590    -0.00500
C1726       C  0.86346745  0.05998646  0.24703551    -0.03100
C1727       C  0.89094881  0.12133573  0.20846165     0.36200
C1728       C  0.83266236  0.01933746  0.22836800     0.39800
C1729       C  0.85890925  0.09191298  0.15955696     0.38900
C1730       C  0.86489584  0.04957700  0.27715937     0.35900
C1731       C  0.86788537  0.10633988  0.29626188     0.36500
C1732       C  0.96490298  0.12819969  0.27142063     0.39800
N1733       N  0.85780186  0.10092352  0.13613560    -0.38300
N1734       N  0.90296090  0.14196273  0.20463262    -0.39900
N1735       N  0.82052416  0.99881026  0.23291330    -0.37600
N1736       N  0.86597696  0.04129462  0.30124400    -0.40000
N1737       N  0.92965089  0.08271925  0.21379676    -0.39800
N1738       N  0.98448146  0.13292018  0.26542321    -0.37400
N1739       N  0.90161283  0.14858088  0.35756914    -0.38500
N1740       N  0.84821741  0.10193874  0.30082520    -0.40100
C1741       C  0.01064190  0.41969473  0.16491109    -0.05100
C1742       C  0.00954347  0.41154203  0.13302325     0.09100
C1743       C  0.03006673  0.41187190  0.12022513    -0.02400
C1744       C  0.05001593  0.41723041  0.13978331    -0.00700
C1745       C  0.05247403  0.42766496  0.17075903    -0.04300
C1746       C  0.03238282  0.42869695  0.18323266     0.02700
C1747       C  0.98626342  0.39904144  0.11388359     0.09500
C1748       C  0.03049992  0.40621591  0.08665369     0.35400
C1749       C  0.03393846  0.43882143  0.21468151     0.38900
C1750       C  0.97595718  0.41191161  0.09955854    -0.04700
C1751       C  0.95524084  0.39977850  0.07946853     0.02500
C1752       C  0.94520471  0.37487671  0.07249023    -0.04300
C1753       C  0.95595231  0.36225883  0.08638039    -0.00500
C1754       C  0.97588515  0.37406038  0.10725016    -0.03100
C1755       C  0.98652583  0.43756961  0.10571733     0.36200
C1756       C  0.94593731  0.33659770  0.08017399     0.39800
C1757       C  0.94338757  0.41255900  0.06775524     0.38900
C1758       C  0.98573397  0.36029239  0.12222163     0.35900
C1759       C  0.98937649  0.41861468  0.17887018     0.36500
C1760       C  0.06735913  0.41052962  0.12812312     0.39800
N1761       N  0.93384939  0.42286369  0.05897623    -0.38300
N1762       N  0.99489778  0.45805350  0.11073526    -0.39900
N1763       N  0.93816735  0.31613121  0.07567314    -0.37600
N1764       N  0.99374277  0.34944066  0.13402756    -0.40000
N1765       N  0.03089524  0.40193879  0.05985788    -0.39800
N1766       N  0.08106493  0.40511024  0.11875879    -0.37400
N1767       N  0.03516580  0.44691411  0.23983724    -0.38500
N1768       N  0.97232055  0.41769008  0.18994056    -0.40100
C1769       C  0.07813326  0.30132741  0.29513519    -0.05100
C1770       C  0.07210396  0.31980175  0.29736451     0.09100
C1771       C  0.05666886  0.31866490  0.32248132    -0.02400
C1772       C  0.04573500  0.29828135  0.34303459    -0.00700
C1773       C  0.05115593  0.27942763  0.33998665    -0.04300
C1774       C  0.06846341  0.28187783  0.31706395     0.02700
C1775       C  0.08222154  0.34051999  0.27362907     0.09500
C1776       C  0.05173616  0.33833013  0.32686046     0.35400
C1777       C  0.07656465  0.26441556  0.31606458     0.38900
C1778       C  0.06694734  0.34302192  0.25121825    -0.04700
C1779       C  0.07607519  0.36365605  0.23113545     0.02500
C1780       C  0.10072255  0.38174338  0.23255237    -0.04300
C1781       C  0.11631918  0.37814137  0.25300080    -0.00500
C1782       C  0.10713380  0.35796162  0.27371206    -0.03100
C1783       C  0.04161631  0.32465117  0.24946856     0.36200
C1784       C  0.14191961  0.39574203  0.25350256     0.39800
C1785       C  0.05977330  0.36710494  0.21054425     0.38900
C1786       C  0.12323483  0.35576760  0.29620735     0.35900
C1787       C  0.09352812  0.30172959  0.26937592     0.36500
C1788       C  0.02822416  0.29624782  0.36668926     0.39800
N1789       N  0.04679217  0.36994511  0.19416295    -0.38300
N1790       N  0.02138039  0.30999645  0.24815159    -0.39900
N1791       N  0.16243243  0.40948935  0.25397872    -0.37600
N1792       N  0.13606343  0.35392788  0.31407470    -0.40000
N1793       N  0.04786811  0.35408052  0.33035379    -0.39800
N1794       N  0.01422241  0.29454044  0.38558388    -0.37400
N1795       N  0.08401439  0.25123256  0.31529077    -0.38500
N1796       N  0.10576595  0.30200661  0.24879769    -0.40100
C1797       C  0.21870792  0.46146202  0.29666920    -0.05100
C1798       C  0.21688215  0.46283386  0.32991771     0.09100
C1799       C  0.19849671  0.46641549  0.34292398    -0.02400
C1800       C  0.18198387  0.46876954  0.32261081    -0.00700
C1801       C  0.18403166  0.46795526  0.28894768    -0.04300
C1802       C  0.20256539  0.46399616  0.27630785     0.02700
C1803       C  0.23511874  0.46121947  0.35079646     0.09500
C1804       C  0.19707194  0.46831054  0.37726593     0.35400
C1805       C  0.20536549  0.46218344  0.24220171     0.38900
C1806       C  0.25772095  0.48201950  0.35639935    -0.04700
C1807       C  0.27574900  0.48041253  0.37392449     0.02500
C1808       C  0.27147799  0.45776857  0.38586070    -0.04300
C1809       C  0.24892555  0.43676117  0.37921375    -0.00500
C1810       C  0.23083861  0.43859342  0.36197999    -0.03100
C1811       C  0.26253330  0.50512748  0.34358852     0.36200
C1812       C  0.24381330  0.41325860  0.39078159     0.39800
C1813       C  0.29885055  0.50224531  0.37910872     0.38900
C1814       C  0.20770216  0.41715838  0.35556286     0.35900
C1815       C  0.23771157  0.45784000  0.28333114     0.36500
C1816       C  0.16363622  0.47299616  0.33655405     0.39800
N1817       N  0.31718658  0.51970880  0.38334964    -0.38300
N1818       N  0.26641611  0.52352739  0.33323072    -0.39900
N1819       N  0.23965844  0.39444322  0.39985838    -0.37600
N1820       N  0.18919335  0.40014459  0.35040060    -0.40000
N1821       N  0.19609481  0.46991378  0.40469758    -0.39800
N1822       N  0.14903991  0.47640152  0.34782549    -0.37400
N1823       N  0.20825981  0.46080603  0.21519054    -0.38500
N1824       N  0.25290542  0.45505362  0.27277012    -0.40100
C1825       C  0.22730210  0.48060448  0.09857458    -0.05100
C1826       C  0.22760723  0.45873973  0.09683934     0.09100
C1827       C  0.21279631  0.43945154  0.11719122    -0.02400
C1828       C  0.19702749  0.44169492  0.13869740    -0.00700
C1829       C  0.19594451  0.46340931  0.13989416    -0.04300
C1830       C  0.21144992  0.48294781  0.11974032     0.02700
C1831       C  0.24284787  0.45584983  0.07225766     0.09500
C1832       C  0.21359829  0.41714379  0.11556820     0.35400
C1833       C  0.21026205  0.50505341  0.11889192     0.38900
C1834       C  0.26703322  0.46275821  0.07920017    -0.04700
C1835       C  0.28221918  0.46263183  0.05489324     0.02500
C1836       C  0.27313650  0.45533905  0.02349708    -0.04300
C1837       C  0.24845912  0.44723120  0.01707512    -0.00500
C1838       C  0.23345299  0.44770881  0.04138066    -0.03100
C1839       C  0.27627382  0.47024471  0.11135996     0.36200
C1840       C  0.23859904  0.43926083  0.48533387     0.39800
C1841       C  0.30708292  0.46964602  0.06244730     0.38900
C1842       C  0.20844133  0.44046014  0.03449094     0.35900
C1843       C  0.24297222  0.50052919  0.07777360     0.36500
C1844       C  0.18196232  0.42147558  0.15940890     0.39800
N1845       N  0.32691144  0.47526691  0.06846408    -0.38300
N1846       N  0.28354257  0.47612298  0.13707498    -0.39900
N1847       N  0.23059944  0.43277070  0.46004833    -0.37600
N1848       N  0.18851261  0.43475632  0.02904739    -0.40000
N1849       N  0.21427290  0.39937202  0.11424721    -0.39800
N1850       N  0.16990567  0.40527190  0.17577953    -0.37400
N1851       N  0.20952609  0.52278565  0.11772481    -0.38500
N1852       N  0.25550270  0.51634989  0.06116258    -0.40100
C1853       C  0.12196066  0.52336448  0.07624972    -0.05100
C1854       C  0.13878277  0.54833425  0.07746613     0.09100
C1855       C  0.15872152  0.55703785  0.09827961    -0.02400
C1856       C  0.16127445  0.54108968  0.11903086    -0.00700
C1857       C  0.14372400  0.51602709  0.11927379    -0.04300
C1858       C  0.12426665  0.50725528  0.09718257     0.02700
C1859       C  0.13548972  0.56585145  0.05735523     0.09500
C1860       C  0.17660037  0.58263310  0.09838977     0.35400
C1861       C  0.10579352  0.48194344  0.09680210     0.38900
C1862       C  0.12385146  0.57786564  0.07014119    -0.04700
C1863       C  0.12267613  0.59605585  0.05240194     0.02500
C1864       C  0.13283279  0.60210934  0.02146391    -0.04300
C1865       C  0.14423871  0.58972715  0.00857237    -0.00500
C1866       C  0.14560416  0.57176837  0.02654891    -0.03100
C1867       C  0.11327482  0.57157919  0.10177980     0.36200
C1868       C  0.15416708  0.59493540  0.47645410     0.39800
C1869       C  0.11193675  0.60923502  0.06659768     0.38900
C1870       C  0.15754111  0.55936591  0.01347564     0.35900
C1871       C  0.10210959  0.51433346  0.05359918     0.36500
C1872       C  0.18213601  0.55080623  0.14009776     0.39800
N1873       N  0.10352184  0.61988159  0.07796579    -0.38300
N1874       N  0.10480770  0.56646371  0.12700164    -0.39900
N1875       N  0.16216623  0.59908036  0.45092102    -0.37600
N1876       N  0.16703266  0.54942335  0.00313770    -0.40000
N1877       N  0.19080483  0.60304288  0.09830196    -0.39800
N1878       N  0.19876129  0.55873888  0.15692047    -0.37400
N1879       N  0.09081967  0.46182470  0.09601888    -0.38500
N1880       N  0.08635505  0.50709573  0.03539632    -0.40100
C1881       C  0.14716025  0.55393441  0.31768090    -0.05100
C1882       C  0.12873009  0.55956689  0.31214447     0.09100
C1883       C  0.11348843  0.54976665  0.28530035    -0.02400
C1884       C  0.11601628  0.53356030  0.26478151    -0.00700
C1885       C  0.13354294  0.52677768  0.27135329    -0.04300
C1886       C  0.14965032  0.53767990  0.29734738     0.02700
C1887       C  0.12519374  0.57535713  0.33541836     0.09500
C1888       C  0.09512534  0.55626911  0.27902322     0.35400
C1889       C  0.16854408  0.53189026  0.30374709     0.38900
C1890       C  0.13828482  0.60068587  0.33207668    -0.04700
C1891       C  0.13751000  0.61566844  0.35634748     0.02500
C1892       C  0.12382029  0.60535577  0.38453702    -0.04300
C1893       C  0.10966533  0.57980862  0.38688939    -0.00500
C1894       C  0.11030822  0.56495970  0.36232289    -0.03100
C1895       C  0.15292172  0.61128955  0.30379835     0.36200
C1896       C  0.09530869  0.56854899  0.41518036     0.39800
C1897       C  0.15072261  0.64171334  0.35195388     0.38900
C1898       C  0.09612556  0.53883297  0.36502060     0.35900
C1899       C  0.16332795  0.56464364  0.34475424     0.36500
C1900       C  0.10134102  0.52468149  0.23613776     0.39800
N1901       N  0.16131389  0.66247092  0.34840868    -0.38300
N1902       N  0.16456341  0.61970959  0.28120719    -0.39900
N1903       N  0.08381369  0.55951761  0.43769740    -0.37600
N1904       N  0.08479280  0.51798755  0.36701995    -0.40000
N1905       N  0.08047249  0.56148750  0.27407377    -0.39800
N1906       N  0.08990750  0.51779371  0.21302715    -0.37400
N1907       N  0.18382502  0.52758265  0.30883342    -0.38500
N1908       N  0.17616830  0.57324752  0.36635972    -0.40100
Fe1909     Fe  0.16527576  0.49592397  0.70617647     1.65800
Fe1910     Fe  0.12549768  0.44654866  0.66711578     1.73200
Fe1911     Fe  0.11460213  0.45462828  0.74361277     1.54400
O1912       O  0.14590297  0.46547350  0.77300804    -0.81300
O1913       O  0.09424495  0.44694950  0.66683256    -0.79600
O1914       O  0.17797755  0.48299610  0.74052358    -0.83800
O1915       O  0.15481615  0.51212183  0.74081977    -0.78600
O1916       O  0.11210960  0.42172817  0.74342329    -0.80400
O1917       O  0.13856898  0.47783622  0.63804589    -0.83100
C1918       C  0.13458716  0.50775486  0.75201412     0.97600
C1919       C  0.16817001  0.47233404  0.76642739     1.05100
O1920       O  0.13506250  0.46536958  0.70592215    -1.12100
O1921       O  0.15712475  0.44617322  0.66395589    -0.74600
O1922       O  0.18174047  0.48524958  0.67154803    -0.78000
O1923       O  0.11561800  0.48738479  0.74828262    -0.78700
C1924       C  0.17740335  0.46499866  0.66001722     0.96500
O1925       O  0.15218959  0.50891330  0.67189406    -0.76700
O1926       O  0.11048096  0.41267032  0.69173545    -0.81900
C1927       C  0.07713229  0.43906355  0.68649227     0.99100
C1928       C  0.10845235  0.40682229  0.72135735     1.05100
O1929       O  0.08113779  0.44016332  0.71677668    -0.77500
C1930       C  0.14480235  0.49987578  0.64438010     1.03400
Fe1931     Fe  0.99861279  0.16414358  0.86695244     1.65800
Fe1932     Fe  0.01463670  0.21581566  0.90644489     1.73200
Fe1933     Fe  0.98850236  0.20664808  0.83389939     1.54400
O1934       O  0.01064928  0.19904823  0.80255909    -0.81300
O1935       O  0.98845637  0.22468912  0.91007350    -0.79600
O1936       O  0.02352554  0.17756551  0.83106881    -0.83800
O1937       O  0.97180283  0.14866346  0.83316194    -0.78600
O1938       O  0.01664368  0.24151459  0.83496477    -0.80400
O1939       O  0.99191605  0.18461049  0.93509965    -0.83100
C1940       C  0.95606867  0.15326857  0.82261763     0.97600
C1941       C  0.02492710  0.19028947  0.80676027     1.05100
O1942       O  0.00038121  0.19572467  0.86905074    -1.12100
O1943       O  0.04346517  0.21027585  0.90672841    -0.74600
O1944       O  0.02461836  0.17094966  0.90128349    -0.78000
O1945       O  0.95777610  0.17362777  0.82679569    -0.78700
C1946       C  0.04165538  0.19018099  0.91283476     0.96500
O1947       O  0.97365239  0.15191300  0.90281422    -0.76700
O1948       O  0.03686837  0.24793575  0.88058271    -0.81900
C1949       C  0.97053901  0.22224950  0.89433417     0.99100
C1950       C  0.03407732  0.25491538  0.85311391     1.05100
O1951       O  0.96724343  0.21522173  0.86501658    -0.77500
C1952       C  0.97554536  0.16240875  0.92944797     1.03400
Fe1953     Fe  0.83173402  0.32602632  0.53244697     1.65800
Fe1954     Fe  0.87103319  0.31672533  0.57528604     1.73200
Fe1955     Fe  0.88495416  0.33869172  0.99947984     1.54400
O1956       O  0.85575391  0.31691132  0.96763390    -0.81300
O1957       O  0.90472455  0.34594144  0.57772764    -0.79600
O1958       O  0.82169299  0.30083319  0.49678986    -0.83800
O1959       O  0.84278312  0.35310810  0.49853929    -0.78600
O1960       O  0.89102835  0.31062111  0.50158115    -0.80400
O1961       O  0.85916144  0.33726623  0.60251711    -0.83100
C1962       C  0.86271118  0.36911459  0.98693928     0.97600
C1963       C  0.83320906  0.30132232  0.97175206     1.05100
O1964       O  0.86290732  0.32724365  0.53580650    -1.12100
O1965       O  0.83839456  0.28542136  0.57794249    -0.74600
O1966       O  0.81343778  0.29868323  0.56583003    -0.78000
O1967       O  0.88191749  0.36869568  0.99234472    -0.78700
C1968       C  0.81784389  0.28361403  0.57946960     0.96500
O1969       O  0.84199421  0.35121393  0.56808653    -0.76700
O1970       O  0.88446618  0.29640217  0.55137691    -0.81900
C1971       C  0.92050405  0.36007654  0.55822818     0.99100
C1972       C  0.89141455  0.29671779  0.52259328     1.05100
O1973       O  0.91616341  0.36015508  0.52829925    -0.77500
C1974       C  0.85060078  0.35121580  0.59552777     1.03400
Fe1975     Fe  0.82827878  0.49807521  0.78947982     1.65800
Fe1976     Fe  0.86088752  0.55797092  0.80208043     1.73200
Fe1977     Fe  0.88827124  0.52713713  0.77500390     1.54400
O1978       O  0.87851247  0.49748280  0.80517265    -0.81300
O1979       O  0.88273885  0.57739658  0.76546604    -0.79600
O1980       O  0.84147749  0.48588799  0.82508857    -0.83800
O1981       O  0.83704910  0.47900302  0.75699124    -0.78600
O1982       O  0.90916317  0.54907724  0.81119432    -0.80400
O1983       O  0.83076560  0.54944263  0.77265560    -0.83100
C1984       C  0.85368696  0.48371484  0.73700895     0.97600
C1985       C  0.86148293  0.48585231  0.82536987     1.05100
O1986       O  0.85948727  0.52806098  0.78864580    -1.12100
O1987       O  0.83983419  0.54346183  0.84217332    -0.74600
O1988       O  0.81115658  0.50917487  0.82226802    -0.78000
O1989       O  0.87206543  0.50472879  0.73576907    -0.78700
C1990       C  0.81818467  0.52642839  0.84201056     0.96500
O1991       O  0.81642584  0.51159892  0.75379220    -0.76700
O1992       O  0.89202374  0.56964420  0.83029620    -0.81900
C1993       C  0.89891614  0.57693875  0.74860047     0.99100
C1994       C  0.90983841  0.56586284  0.82806782     1.05100
O1995       O  0.90133749  0.55824413  0.74616120    -0.77500
C1996       C  0.81754120  0.53215539  0.75329973     1.03400
Fe1997     Fe  0.15733159  0.66377708  0.95536556     1.65800
Fe1998     Fe  0.09639714  0.63150385  0.96464879     1.73200
Fe1999     Fe  0.12449988  0.69250465  0.95065388     1.54400
O2000       O  0.15227350  0.71038675  0.98387642    -0.81300
O2001       O  0.07710812  0.63812270  0.93177388    -0.79600
O2002       O  0.16966065  0.68781374  0.99292562    -0.83800
O2003       O  0.17353824  0.69220775  0.92417556    -0.78600
O2004       O  0.10017163  0.68427342  0.98680204    -0.80400
O2005       O  0.10635502  0.61538320  0.92861725    -0.83100
C2006       C  0.16883319  0.70665430  0.90957830     0.97600
C2007       C  0.16693434  0.70588381  0.99913624     1.05100
O2008       O  0.12595277  0.66260117  0.95687780    -1.12100
O2009       O  0.11045311  0.61941992  0.49968237    -0.74600
O2010       O  0.14881054  0.63555909  0.98617151    -0.78000
O2011       O  0.14880116  0.70597942  0.91303445    -0.78700
C2012       C  0.13063961  0.62033890  0.50168834     0.96500
O2013       O  0.14566673  0.63984408  0.91773833    -0.76700
O2014       O  0.08330721  0.64522023  0.99982228    -0.81900
C2015       C  0.07797346  0.65544451  0.91614631     0.99100
C2016       C  0.08542676  0.66607087  0.50281910     1.05100
O2017       O  0.09568192  0.67703005  0.91811015    -0.77500
C2018       C  0.12526448  0.62117278  0.91189882     1.03400
Fe2019     Fe  0.99403436  0.82221326  0.61819298     1.65800
Fe2020     Fe  0.02380087  0.79079932  0.62538062     1.73200
Fe2021     Fe  0.96348417  0.76165866  0.60686523     1.54400
O2022       O  0.94481931  0.77164352  0.63887088    -0.81300
O2023       O  0.01801713  0.76693127  0.58930674    -0.79600
O2024       O  0.96968243  0.80978322  0.65503007    -0.83800
O2025       O  0.96593925  0.81249386  0.58645477    -0.78600
O2026       O  0.96841511  0.74326966  0.64281523    -0.80400
O2027       O  0.04205758  0.81896768  0.59287725    -0.83100
C2028       C  0.95301295  0.79494106  0.56815282     0.97600
C2029       C  0.95010650  0.78960822  0.65734513     1.05100
O2030       O  0.99383297  0.79136518  0.61683835    -1.12100
O2031       O  0.03498738  0.81451629  0.66377766    -0.74600
O2032       O  0.02220941  0.83957940  0.64998432    -0.78000
O2033       O  0.95428628  0.77579233  0.56854062    -0.78700
C2034       C  0.03581510  0.83466945  0.66633082     0.96500
O2035       O  0.01831969  0.83474000  0.58152348    -0.76700
O2036       O  0.00737777  0.76163987  0.65699501    -0.81900
C2037       C  0.00022623  0.75066627  0.57397907     0.99100
C2038       C  0.98563072  0.74420328  0.65895099     1.05100
O2039       O  0.97898177  0.74767867  0.57568814    -0.77500
C2040       C  0.03693788  0.83275174  0.57651482     1.03400
Fe2041     Fe  0.32906567  0.83355510  0.70612683     1.65800
Fe2042     Fe  0.32097420  0.87592152  0.66860701     1.73200
Fe2043     Fe  0.34011115  0.88419961  0.74648652     1.54400
O2044       O  0.31804937  0.85318198  0.77482535    -0.81300
O2045       O  0.34962916  0.90996001  0.67206831    -0.79600
O2046       O  0.30413398  0.82149706  0.74187930    -0.83800
O2047       O  0.35677911  0.84302470  0.73883803    -0.78600
O2048       O  0.31127184  0.88969129  0.74459782    -0.80400
O2049       O  0.34390076  0.86810689  0.64031256    -0.83100
C2050       C  0.37182504  0.86196794  0.75361015     0.97600
C2051       C  0.30389271  0.83064138  0.76873392     1.05100
O2052       O  0.33015956  0.86477581  0.70700804    -1.12100
O2053       O  0.29062646  0.84348601  0.65877849    -0.74600
O2054       O  0.30127276  0.81689805  0.67343305    -0.78000
O2055       O  0.37000630  0.88078895  0.75383354    -0.78700
C2056       C  0.28741598  0.82234740  0.65860575     0.96500
O2057       O  0.35378178  0.84511481  0.66990755    -0.76700
O2058       O  0.29798078  0.88482768  0.69424478    -0.81900
C2059       C  0.36440989  0.92346917  0.69303054     0.99100
C2060       C  0.29651993  0.88892221  0.72382014     1.05100
O2061       O  0.36317100  0.91701199  0.72218738    -0.77500
C2062       C  0.35667219  0.85795035  0.64530760     1.03400
Fe2063     Fe  0.16732060  0.99478976  0.87176414     1.65800
Fe2064     Fe  0.21424658  0.99822086  0.83158416     1.73200
Fe2065     Fe  0.20619952  0.98234203  0.90966068     1.54400
O2066       O  0.19802730  0.00474478  0.93820095    -0.81300
O2067       O  0.21287050  0.96563723  0.83343313    -0.79600
O2068       O  0.18299346  0.02146974  0.90511989    -0.83800
O2069       O  0.15006653  0.96937035  0.90749114    -0.78600
O2070       O  0.24034938  0.01092729  0.90670949    -0.80400
O2071       O  0.18211608  0.98079463  0.80396694    -0.83100
C2072       C  0.15328171  0.95292988  0.91931831     0.97600
C2073       C  0.19180063  0.02055021  0.93192362     1.05100
O2074       O  0.19615052  0.99176720  0.87105201    -1.12100
O2075       O  0.21703682  0.03146107  0.82683025    -0.74600
O2076       O  0.17898482  0.02103458  0.83642066    -0.78000
O2077       O  0.17281365  0.95271739  0.91608695    -0.78700
C2078       C  0.19952301  0.03534056  0.82450946     0.96500
O2079       O  0.15152564  0.96797839  0.83833690    -0.76700
O2080       O  0.24829144  0.01587149  0.85450019    -0.81900
C2081       C  0.21541954  0.95378169  0.85583502     0.99100
C2082       C  0.25485392  0.02037043  0.88370677     1.05100
O2083       O  0.21569091  0.95928116  0.88525997    -0.77500
C2084       C  0.15968904  0.96732507  0.81091715     1.03400
Fe2085     Fe  0.49120633  0.15639130  0.54373360     1.65800
Fe2086     Fe  0.44087295  0.11198922  0.57718671     1.73200
Fe2087     Fe  0.45440140  0.10796592  0.00116960     1.54400
O2088       O  0.46696011  0.13970861  0.97333747    -0.81300
O2089       O  0.44434689  0.08241856  0.57683374    -0.79600
O2090       O  0.47871122  0.16953758  0.00868761    -0.83800
O2091       O  0.51040818  0.14806006  0.51028967    -0.78600
O2092       O  0.42302590  0.10813737  0.50159375    -0.80400
O2093       O  0.47062215  0.12682296  0.60972851    -0.83100
C2094       C  0.50687709  0.12859595  0.99699664     0.97600
C2095       C  0.47208973  0.16125149  0.98068978     1.05100
O2096       O  0.46245097  0.12518889  0.54086090    -1.12100
O2097       O  0.43704640  0.14200311  0.57983483    -0.74600
O2098       O  0.47621913  0.16944152  0.57700212    -0.78000
O2099       O  0.48680022  0.10912252  0.99845421    -0.78700
C2100       C  0.45465067  0.16303428  0.58526089     0.96500
O2101       O  0.50357350  0.14339332  0.57906392    -0.76700
O2102       O  0.40838377  0.09303367  0.54873295    -0.81900
C2103       C  0.44023460  0.06780766  0.55421640     0.99100
C2104       C  0.40536444  0.09448300  0.51871682     1.05100
O2105       O  0.44017497  0.07359966  0.52480921    -0.77500
C2106       C  0.49324855  0.13439516  0.60547988     1.03400
Fe2107     Fe  0.82546436  0.99965219  0.62052548     1.65800
Fe2108     Fe  0.79446405  0.02944751  0.61303195     1.73200
Fe2109     Fe  0.76454964  0.96806753  0.62040692     1.54400
O2110       O  0.77867809  0.95188095  0.59023564    -0.81300
O2111       O  0.76962277  0.02127151  0.64878835    -0.79600
O2112       O  0.81728501  0.97950698  0.57973616    -0.83800
O2113       O  0.81246758  0.96795028  0.64699607    -0.78600
O2114       O  0.75019655  0.97525902  0.58097930    -0.80400
O2115       O  0.82160858  0.04601359  0.64730173    -0.83100
C2116       C  0.79343817  0.95439756  0.66266836     0.97600
C2117       C  0.79817122  0.95951293  0.57412416     1.05100
O2118       O  0.79456592  0.99907417  0.61785895    -1.12100
O2119       O  0.81944166  0.04191562  0.57595560    -0.74600
O2120       O  0.84515152  0.03106622  0.59398741    -0.78000
O2121       O  0.77515502  0.95715459  0.66079441    -0.78700
C2122       C  0.84036925  0.04421860  0.57624043     0.96500
O2123       O  0.83391993  0.02001315  0.66140477    -0.76700
O2124       O  0.76618482  0.01541643  0.58005806    -0.81900
C2125       C  0.75085061  0.00208246  0.65760856     0.99100
C2126       C  0.75034453  0.99415912  0.57129371     1.05100
O2127       O  0.74672510  0.98108473  0.64941220    -0.77500
C2128       C  0.83313010  0.03936873  0.66580062     1.03400
Fe2129     Fe  0.50333374  0.83536770  0.95651840     1.65800
Fe2130     Fe  0.56383014  0.86561943  0.95056118     1.73200
Fe2131     Fe  0.53341698  0.89624644  0.96149298     1.54400
O2132       O  0.50336537  0.88406906  0.93128912    -0.81300
O2133       O  0.57938709  0.88712252  0.98967316    -0.79600
O2134       O  0.49224510  0.84600342  0.91686774    -0.83800
O2135       O  0.48479260  0.84760197  0.98519392    -0.78600
O2136       O  0.55529990  0.91190106  0.92262313    -0.80400
O2137       O  0.55185442  0.83532147  0.98034088    -0.83100
C2138       C  0.49030578  0.86606103  0.50246719     0.97600
C2139       C  0.49160051  0.86548622  0.91345496     1.05100
O2140       O  0.53376727  0.86603071  0.95636135    -1.12100
O2141       O  0.55142579  0.84420770  0.90997606    -0.74600
O2142       O  0.51552053  0.81688989  0.92756563    -0.78000
O2143       O  0.51137914  0.88442145  0.50151079    -0.78700
C2144       C  0.53327560  0.82303200  0.90879073     0.96500
O2145       O  0.51425270  0.82437809  0.99612148    -0.76700
O2146       O  0.57998014  0.89666457  0.92200092    -0.81900
C2147       C  0.58036363  0.90666200  0.99831783     0.99100
C2148       C  0.57477935  0.91279933  0.91393449     1.05100
O2149       O  0.56429994  0.91205836  0.99046109    -0.77500
C2150       C  0.53364143  0.82341833  0.99865588     1.03400
Fe2151     Fe  0.66192625  0.15339054  0.78897724     1.65800
Fe2152     Fe  0.63118556  0.09237206  0.78944327     1.73200
Fe2153     Fe  0.69296400  0.12341035  0.78678730     1.54400
O2154       O  0.70752088  0.15209328  0.75439494    -0.81300
O2155       O  0.64238788  0.07983558  0.82730639    -0.79600
O2156       O  0.68019571  0.16356563  0.74621564    -0.83800
O2157       O  0.69439531  0.17274995  0.81396311    -0.78600
O2158       O  0.68175433  0.09954418  0.74885292    -0.80400
O2159       O  0.61613030  0.10606476  0.82207809    -0.83100
C2160       C  0.70917885  0.16797745  0.82795467     0.97600
C2161       C  0.69988023  0.16421812  0.73901107     1.05100
O2162       O  0.66206179  0.12289036  0.78829972    -1.12100
O2163       O  0.61643623  0.10174813  0.75153592    -0.74600
O2164       O  0.62922048  0.13998776  0.76432472    -0.78000
O2165       O  0.70809027  0.14765301  0.82458292    -0.78700
C2166       C  0.61466596  0.12068571  0.74952616     0.96500
O2167       O  0.64402369  0.14426914  0.83182933    -0.76700
O2168       O  0.64254179  0.07436649  0.75797087    -0.81900
C2169       C  0.66192828  0.07958663  0.83207608     0.99100
C2170       C  0.66239587  0.07956037  0.74425163     1.05100
O2171       O  0.68174433  0.09428707  0.81834318    -0.77500
C2172       C  0.62417443  0.12542481  0.83856684     1.03400
Fe2173     Fe  0.48954140  0.32361004  0.78771779     1.65800
Fe2174     Fe  0.46057027  0.35498206  0.78980918     1.73200
Fe2175     Fe  0.42938256  0.29407019  0.79346987     1.54400
O2176       O  0.44140030  0.27584306  0.76362133    -0.81300
O2177       O  0.44210202  0.34652374  0.83196703    -0.79600
O2178       O  0.47776667  0.30376825  0.74635941    -0.83800
O2179       O  0.47652700  0.29213262  0.81483402    -0.78600
O2180       O  0.41661880  0.30239210  0.75381586    -0.80400
O2181       O  0.49261364  0.37207520  0.81700720    -0.83100
C2182       C  0.45861601  0.28033269  0.83342869     0.97600
C2183       C  0.45875899  0.28323001  0.74362819     1.05100
O2184       O  0.45975361  0.32427704  0.79022450    -1.12100
O2185       O  0.48026298  0.36588163  0.74778187    -0.74600
O2186       O  0.50737840  0.35535590  0.76089676    -0.78000
O2187       O  0.44057360  0.28361055  0.83333979    -0.78700
C2188       C  0.50128394  0.36847344  0.74499210     0.96500
O2189       O  0.50156941  0.34328403  0.82892279    -0.76700
O2190       O  0.42723337  0.34055460  0.76448754    -0.81900
C2191       C  0.42026594  0.32997925  0.83400155     0.99100
C2192       C  0.41237258  0.31971965  0.75293580     1.05100
O2193       O  0.41293873  0.30914422  0.82183716    -0.77500
C2194       C  0.50368281  0.36387488  0.83378156     1.03400
Fe2195     Fe  0.17068807  0.16420698  0.62192882     1.65800
Fe2196     Fe  0.23101329  0.19479445  0.61964901     1.73200
Fe2197     Fe  0.19994033  0.22450560  0.62192768     1.54400
O2198       O  0.16883954  0.21020919  0.59336552    -0.81300
O2199       O  0.24176235  0.21477067  0.66044100    -0.79600
O2200       O  0.15988712  0.17259692  0.58045355    -0.83800
O2201       O  0.15210490  0.17793009  0.64781512    -0.78600
O2202       O  0.21945796  0.23463785  0.58067353    -0.80400
O2203       O  0.21789441  0.16401651  0.64863251    -0.83100
C2204       C  0.15775409  0.19680696  0.66436117     0.97600
C2205       C  0.15767945  0.19109291  0.57634591     1.05100
O2206       O  0.20058585  0.19458655  0.62115465    -1.12100
O2207       O  0.22114209  0.17386213  0.57879782    -0.74600
O2208       O  0.18465689  0.14597704  0.59558264    -0.78000
O2209       O  0.17901272  0.21503511  0.66297357    -0.78700
C2210       C  0.20316862  0.15249280  0.57791499     0.96500
O2211       O  0.18096722  0.15550199  0.66374556    -0.76700
O2212       O  0.24880953  0.22717589  0.59271442    -0.81900
C2213       C  0.24650984  0.23648253  0.66158652     0.99100
C2214       C  0.24151448  0.24058450  0.58006030     1.05100
O2215       O  0.23249696  0.24306647  0.64884834    -0.77500
C2216       C  0.19986263  0.15394858  0.66761283     1.03400
Fe2217     Fe  0.33154003  0.48665685  0.95542609     1.65800
Fe2218     Fe  0.36141384  0.45616327  0.95860756     1.73200
Fe2219     Fe  0.30069895  0.42638459  0.94973961     1.54400
O2220       O  0.28234130  0.43919686  0.97773875    -0.81300
O2221       O  0.35434127  0.43679000  0.91729120    -0.79600
O2222       O  0.31021666  0.47570994  0.99532861    -0.83800
O2223       O  0.30090642  0.47428599  0.92703540    -0.78600
O2224       O  0.30672193  0.41282866  0.99057030    -0.80400
O2225       O  0.37997522  0.48735579  0.93053181    -0.83100
C2226       C  0.28944028  0.45672242  0.90785614     0.97600
C2227       C  0.28956393  0.45676199  0.99745736     1.05100
O2228       O  0.33125532  0.45626173  0.95470558    -1.12100
O2229       O  0.37121067  0.47665618  0.50030375    -0.74600
O2230       O  0.36228158  0.50421110  0.98383658    -0.78000
O2231       O  0.29225659  0.43835624  0.90838238    -0.78700
C2232       C  0.37426449  0.49791874  0.50178005     0.96500
O2233       O  0.35290917  0.49788187  0.91550032    -0.76700
O2234       O  0.34543558  0.42343653  0.98485812    -0.81900
C2235       C  0.33722391  0.41526754  0.91439878     0.99100
C2236       C  0.32398792  0.40867781  0.49445804     1.05100
O2237       O  0.31588262  0.40895477  0.92372430    -0.77500
C2238       C  0.37325384  0.49898552  0.91230619     1.03400
Fe2239     Fe  0.50257286  0.66070401  0.70400102     1.65800
Fe2240     Fe  0.54529538  0.65404201  0.74491084     1.73200
Fe2241     Fe  0.55337828  0.66860786  0.66542376     1.54400
O2242       O  0.52300519  0.64304166  0.63920882    -0.81300
O2243       O  0.58026242  0.68096010  0.73827333    -0.79600
O2244       O  0.49026901  0.63661602  0.66666004    -0.83800
O2245       O  0.51385582  0.68933907  0.67294559    -0.78600
O2246       O  0.56116107  0.64157695  0.67282607    -0.80400
O2247       O  0.53976973  0.67982622  0.76990367    -0.83100
C2248       C  0.53150509  0.70126454  0.65437700     0.97600
C2249       C  0.50005502  0.63187945  0.64342850     1.05100
O2250       O  0.53375188  0.66115687  0.70479434    -1.12100
O2251       O  0.51241701  0.62608805  0.75900912    -0.74600
O2252       O  0.48486169  0.63193713  0.73497261    -0.78000
O2253       O  0.54838951  0.69655069  0.65101483    -0.78700
C2254       C  0.49073587  0.62061677  0.75445571     0.96500
O2255       O  0.51299812  0.68489089  0.74117421    -0.76700
O2256       O  0.55142308  0.62779316  0.72265839    -0.81900
C2257       C  0.59292384  0.69587598  0.71689794     0.99100
C2258       C  0.55794580  0.62635355  0.69426658     1.05100
O2259       O  0.58543139  0.69458229  0.68830373    -0.77500
C2260       C  0.52740471  0.69034961  0.76469888     1.03400
Fe2261     Fe  0.66317418  0.50015341  0.54475975     1.65800
Fe2262     Fe  0.64495081  0.53262775  0.50143183     1.73200
Fe2263     Fe  0.66519031  0.54972175  0.57743251     1.54400
O2264       O  0.64543346  0.51916531  0.60808221    -0.81300
O2265       O  0.67069666  0.56777880  0.49963778    -0.79600
O2266       O  0.63795759  0.48607032  0.58005829    -0.83800
O2267       O  0.69041383  0.51531336  0.57887652    -0.78600
O2268       O  0.63389014  0.55044448  0.57383711    -0.80400
O2269       O  0.66924324  0.52590117  0.97468990    -0.83100
C2270       C  0.70321629  0.53616174  0.59087640     0.97600
C2271       C  0.63389545  0.49602137  0.60377884     1.05100
O2272       O  0.65770800  0.52768575  0.54129960    -1.12100
O2273       O  0.61766205  0.49773248  0.99844466    -0.74600
O2274       O  0.63691168  0.47837522  0.51138799    -0.78000
O2275       O  0.69810943  0.55265827  0.58673647    -0.78700
C2276       C  0.61936497  0.47889693  0.99794044     0.96500
O2277       O  0.68849644  0.51457242  0.50950745    -0.76700
O2278       O  0.61994311  0.54063033  0.52412911    -0.81900
C2279       C  0.68390377  0.58476432  0.51841260     0.99100
C2280       C  0.61843716  0.54692969  0.55267038     1.05100
O2281       O  0.68411194  0.58138279  0.54861484    -0.77500
C2282       C  0.68668417  0.52225186  0.98219993     1.03400
Fe2283     Fe  0.82605213  0.82771580  0.86277850     1.65800
Fe2284     Fe  0.77749781  0.79290563  0.90737001     1.73200
Fe2285     Fe  0.78145824  0.77528808  0.83203203     1.54400
O2286       O  0.78972527  0.80485425  0.80040254    -0.81300
O2287       O  0.77111253  0.75877988  0.91048115    -0.79600
O2288       O  0.81180512  0.83910832  0.82831067    -0.83800
O2289       O  0.83929987  0.81460652  0.82785781    -0.78600
O2290       O  0.74825163  0.77186193  0.83546580    -0.80400
O2291       O  0.81001190  0.80323930  0.93325852    -0.83100
C2292       C  0.83361470  0.79397435  0.81691468     0.97600
C2293       C  0.79858554  0.82784510  0.80445849     1.05100
O2294       O  0.79471925  0.79829597  0.86733340    -1.12100
O2295       O  0.78163589  0.82662093  0.90888424    -0.74600
O2296       O  0.82014448  0.84812588  0.89675897    -0.78000
O2297       O  0.81342510  0.77557318  0.82310408    -0.78700
C2298       C  0.80142445  0.84617262  0.91004392     0.96500
O2299       O  0.83974455  0.81551831  0.89716227    -0.76700
O2300       O  0.74353945  0.78154874  0.88507300    -0.81900
C2301       C  0.76695281  0.74137323  0.89229954     0.99100
C2302       C  0.73573268  0.77443946  0.85669329     1.05100
O2303       O  0.77032654  0.74418102  0.86195640    -0.77500
C2304       C  0.83160960  0.80865544  0.92518819     1.03400
C2305       C  0.73572892  0.69344181  0.95714248    -0.05100
C2306       C  0.74126315  0.67546123  0.94854025     0.09100
C2307       C  0.75455603  0.67835022  0.92021905    -0.02400
C2308       C  0.76258573  0.69934389  0.90089777    -0.00700
C2309       C  0.75678408  0.71735892  0.90931884    -0.04300
C2310       C  0.74231452  0.71349215  0.93715950     0.02700
C2311       C  0.72814953  0.65155154  0.96566003     0.09500
C2312       C  0.75952310  0.65940936  0.91076793     0.35400
C2313       C  0.73281549  0.72941356  0.94485745     0.38900
C2314       C  0.70419974  0.63528705  0.95643728    -0.04700
C2315       C  0.68960196  0.61456816  0.97480089     0.02500
C2316       C  0.69895228  0.60899294  0.50250952    -0.04300
C2317       C  0.72324655  0.62520382  0.51143876    -0.00500
C2318       C  0.73767510  0.64654175  0.99326844    -0.03100
C2319       C  0.69439248  0.64022258  0.92790774     0.36200
C2320       C  0.73380813  0.61951321  0.53833293     0.39800
C2321       C  0.66469982  0.59908698  0.96461367     0.38900
C2322       C  0.76231085  0.66333506  0.00287893     0.35900
C2323       C  0.72223092  0.69072983  0.98629713     0.36500
C2324       C  0.77635580  0.70203404  0.87223831     0.39800
N2325       N  0.64502804  0.58673573  0.95594333    -0.38300
N2326       N  0.68675000  0.64427064  0.90514205    -0.39900
N2327       N  0.74224791  0.61487300  0.55972791    -0.37600
N2328       N  0.78200755  0.67672344  0.01053932    -0.40000
N2329       N  0.76340887  0.64420468  0.90330569    -0.39800
N2330       N  0.78709162  0.70386498  0.84914786    -0.37400
N2331       N  0.72514216  0.74197030  0.95105654    -0.38500
N2332       N  0.71145127  0.68853273  0.50955271    -0.40100
C2333       C  0.63552431  0.74593288  0.77098203    -0.05100
C2334       C  0.65467833  0.74091732  0.77325050     0.09100
C2335       C  0.65612024  0.72531948  0.75029049    -0.02400
C2336       C  0.63720380  0.71280358  0.72787470    -0.00700
C2337       C  0.61679596  0.71585218  0.72806849    -0.04300
C2338       C  0.61701820  0.73381999  0.74804404     0.02700
C2339       C  0.67278822  0.75110897  0.80031126     0.09500
C2340       C  0.67666645  0.72145920  0.75059282     0.35400
C2341       C  0.59775039  0.73943271  0.74535808     0.38900
C2342       C  0.67307097  0.73555320  0.82417826    -0.04700
C2343       C  0.69235031  0.74407906  0.84642956     0.02500
C2344       C  0.71113039  0.76844696  0.84581698    -0.04300
C2345       C  0.70913643  0.78456444  0.82457506    -0.00500
C2346       C  0.69043630  0.77592394  0.80148140    -0.03100
C2347       C  0.65410027  0.71039307  0.82476992     0.36200
C2348       C  0.72721723  0.80997869  0.82528725     0.39800
C2349       C  0.69385171  0.72729378  0.86830363     0.38900
C2350       C  0.69030764  0.79235983  0.77770293     0.35900
C2351       C  0.63409342  0.76256207  0.79331579     0.36500
C2352       C  0.63851699  0.69654402  0.70483739     0.39800
N2353       N  0.69489794  0.71370360  0.88556300    -0.38300
N2354       N  0.63897648  0.69030763  0.82507046    -0.39900
N2355       N  0.74128607  0.83039541  0.82578775    -0.37600
N2356       N  0.69020666  0.80553079  0.75881946    -0.40000
N2357       N  0.69305887  0.71836991  0.75108458    -0.39800
N2358       N  0.63985225  0.68396071  0.68601280    -0.37400
N2359       N  0.58270199  0.74437793  0.74284178    -0.38500
N2360       N  0.63301054  0.77592894  0.81103419    -0.40100
C2361       C  0.59093339  0.58295597  0.58303442    -0.05100
C2362       C  0.57805064  0.56859628  0.60955622     0.09100
C2363       C  0.57284774  0.54437092  0.61074712    -0.02400
C2364       C  0.58283199  0.53559115  0.58774418    -0.00700
C2365       C  0.59855405  0.55102101  0.56377315    -0.04300
C2366       C  0.60111860  0.57418602  0.56023849     0.02700
C2367       C  0.57145844  0.57958564  0.63698833     0.09500
C2368       C  0.55833969  0.52890215  0.63666091     0.35400
C2369       C  0.61552378  0.58962159  0.53430840     0.38900
C2370       C  0.54750285  0.57471302  0.64116122    -0.04700
C2371       C  0.54226294  0.58759544  0.66433591     0.02500
C2372       C  0.56087481  0.60574030  0.68320206    -0.04300
C2373       C  0.58415653  0.60843551  0.68171085    -0.00500
C2374       C  0.58951251  0.59556508  0.65855808    -0.03100
C2375       C  0.52842664  0.55719807  0.62072253     0.36200
C2376       C  0.60256864  0.62461079  0.70392040     0.39800
C2377       C  0.51770456  0.58265810  0.66821861     0.38900
C2378       C  0.61381475  0.59933917  0.65613076     0.35900
C2379       C  0.59472238  0.60724897  0.58014146     0.36500
C2380       C  0.57781566  0.51087225  0.58959087     0.39800
N2381       N  0.49793824  0.57821334  0.67158562    -0.38300
N2382       N  0.51317303  0.54306964  0.60457190    -0.39900
N2383       N  0.61712456  0.63708108  0.72216669    -0.37600
N2384       N  0.63318686  0.60230040  0.65396807    -0.40000
N2385       N  0.54664035  0.51661673  0.65731954    -0.39800
N2386       N  0.57328539  0.49095686  0.59105247    -0.37400
N2387       N  0.62680652  0.60217280  0.51361778    -0.38500
N2388       N  0.59775655  0.62664788  0.57794172    -0.40100
C2389       C  0.43058430  0.54564470  0.86967663    -0.05100
C2390       C  0.42128706  0.54732811  0.83983890     0.09100
C2391       C  0.39643574  0.53258523  0.83326695    -0.02400
C2392       C  0.38085487  0.51626465  0.85651654    -0.00700
C2393       C  0.38997912  0.51494660  0.88691049    -0.04300
C2394       C  0.41506692  0.52957564  0.89314663     0.02700
C2395       C  0.43773735  0.56531619  0.81577096     0.09500
C2396       C  0.38690479  0.53445493  0.80260136     0.35400
C2397       C  0.42499115  0.52893241  0.92407603     0.38900
C2398       C  0.45309880  0.56033744  0.79700435    -0.04700
C2399       C  0.47030591  0.57825505  0.77663239     0.02500
C2400       C  0.47165124  0.60100672  0.77407809    -0.04300
C2401       C  0.45580008  0.60571044  0.79238982    -0.00500
C2402       C  0.43901312  0.58796003  0.81326174    -0.03100
C2403       C  0.45133840  0.53681610  0.79905508     0.36200
C2404       C  0.45787194  0.62942055  0.79151084     0.39800
C2405       C  0.48686467  0.57333640  0.75879662     0.38900
C2406       C  0.42357319  0.59325082  0.83308962     0.35900
C2407       C  0.45614833  0.56104214  0.87650244     0.36500
C2408       C  0.35557928  0.50032221  0.84857187     0.39800
N2409       N  0.50021242  0.56935882  0.74500473    -0.38300
N2410       N  0.44985449  0.51801642  0.80069774    -0.39900
N2411       N  0.45964995  0.64837839  0.79091409    -0.37600
N2412       N  0.41125948  0.59741416  0.84898782    -0.40000
N2413       N  0.37931543  0.53608394  0.77819784    -0.39800
N2414       N  0.33547948  0.48756399  0.84203394    -0.37400
N2415       N  0.43306364  0.52849031  0.94865367    -0.38500
N2416       N  0.47653201  0.57335457  0.88188212    -0.40100
C2417       C  0.40898085  0.55552508  0.55205027    -0.05100
C2418       C  0.43124771  0.55639423  0.55714097     0.09100
C2419       C  0.43449198  0.53748901  0.54534439    -0.02400
C2420       C  0.41558832  0.51772685  0.52874153    -0.00700
C2421       C  0.39317004  0.51681883  0.52329944    -0.04300
C2422       C  0.38997187  0.53579325  0.53571350     0.02700
C2423       C  0.44989171  0.57550009  0.57872089     0.09500
C2424       C  0.45742679  0.53843739  0.55036169     0.35400
C2425       C  0.36678199  0.53473578  0.53291769     0.38900
C2426       C  0.44614971  0.57319069  0.61195586    -0.04700
C2427       C  0.46232660  0.59151411  0.63282943     0.02500
C2428       C  0.48345166  0.61209904  0.62087374    -0.04300
C2429       C  0.48768791  0.61383171  0.58743537    -0.00500
C2430       C  0.47064855  0.59591411  0.56646135    -0.03100
C2431       C  0.42532837  0.55174189  0.62469349     0.36200
C2432       C  0.50907741  0.63440139  0.57430481     0.39800
C2433       C  0.45703721  0.58858743  0.66679392     0.38900
C2434       C  0.47402576  0.59883387  0.53218377     0.35900
C2435       C  0.40560265  0.57501159  0.56399099     0.36500
C2436       C  0.41959477  0.49860439  0.51701901     0.39800
N2437       N  0.45254198  0.58590773  0.69377182    -0.38300
N2438       N  0.40871660  0.53458541  0.63463665    -0.39900
N2439       N  0.52622661  0.65072260  0.56380495    -0.37600
N2440       N  0.47664151  0.60129132  0.50482108    -0.40000
N2441       N  0.47580306  0.53930894  0.55415579    -0.39800
N2442       N  0.42285431  0.48333446  0.50788121    -0.37400
N2443       N  0.34829193  0.53389586  0.53079430    -0.38500
N2444       N  0.40295898  0.59057357  0.57352481    -0.40100
C2445       C  0.29157529  0.34013672  0.50272578    -0.05100
C2446       C  0.30289197  0.33712401  0.52974395     0.09100
C2447       C  0.32257658  0.35757248  0.54398022    -0.02400
C2448       C  0.33027282  0.38107589  0.53202142    -0.00700
C2449       C  0.31769550  0.38423314  0.50644923    -0.04300
C2450       C  0.29848489  0.36345069  0.99151091     0.02700
C2451       C  0.29043921  0.31317435  0.54640003     0.09500
C2452       C  0.33422438  0.35441586  0.57168200     0.35400
C2453       C  0.28496843  0.36567059  0.96510342     0.38900
C2454       C  0.29456054  0.29413261  0.53767665    -0.04700
C2455       C  0.27901563  0.27031479  0.54892756     0.02500
C2456       C  0.25907170  0.26546235  0.56858990    -0.04300
C2457       C  0.25589603  0.28503461  0.57851296    -0.00500
C2458       C  0.27146312  0.30860778  0.56747402    -0.03100
C2459       C  0.31440986  0.29904533  0.51646244     0.36200
C2460       C  0.23658793  0.28126594  0.60028363     0.39800
C2461       C  0.28288908  0.25073482  0.53905203     0.38900
C2462       C  0.26730635  0.32820341  0.57674475     0.35900
C2463       C  0.27185728  0.31903190  0.98741527     0.36500
C2464       C  0.35004067  0.40202668  0.54729513     0.39800
N2465       N  0.28598179  0.23509706  0.53113332    -0.38300
N2466       N  0.33034456  0.30306686  0.49960622    -0.39900
N2467       N  0.22120282  0.27850821  0.61744554    -0.37600
N2468       N  0.26397164  0.34380965  0.58399845    -0.40000
N2469       N  0.34356315  0.35190317  0.59382240    -0.39800
N2470       N  0.36578827  0.41878489  0.55950679    -0.37400
N2471       N  0.27354120  0.36676081  0.94437929    -0.38500
N2472       N  0.25615770  0.30218857  0.97528194    -0.40100
C2473       C  0.59037618  0.42447574  0.94142136    -0.05100
C2474       C  0.56785354  0.42284323  0.93555149     0.09100
C2475       C  0.56085673  0.43692750  0.95371012    -0.02400
C2476       C  0.57698994  0.45389795  0.97597005    -0.00700
C2477       C  0.60067038  0.45741734  0.97974125    -0.04300
C2478       C  0.60677744  0.44165613  0.96341763     0.02700
C2479       C  0.55180553  0.40708015  0.90927382     0.09500
C2480       C  0.53713165  0.43430978  0.94889873     0.35400
C2481       C  0.63015154  0.44345045  0.96809667     0.38900
C2482       C  0.53068112  0.38508385  0.91643498    -0.04700
C2483       C  0.51480972  0.37109089  0.89171940     0.02500
C2484       C  0.52005952  0.37894420  0.85970017    -0.04300
C2485       C  0.54148933  0.40062114  0.85243661    -0.00500
C2486       C  0.55721326  0.41477951  0.87719800    -0.03100
C2487       C  0.52519094  0.37703834  0.94931565     0.36200
C2488       C  0.54776776  0.40790144  0.81940145     0.39800
C2489       C  0.49278782  0.34884506  0.89932248     0.38900
C2490       C  0.57884626  0.43745321  0.86975145     0.35900
C2491       C  0.59680688  0.40871544  0.92424929     0.36500
C2492       C  0.56887713  0.46744281  0.49518522     0.39800
N2493       N  0.47520199  0.33113458  0.90546254    -0.38300
N2494       N  0.52079365  0.37073310  0.97558326    -0.39900
N2495       N  0.55287317  0.41359079  0.79304375    -0.37600
N2496       N  0.59611658  0.45554638  0.86386497    -0.40000
N2497       N  0.51815301  0.43206935  0.94512614    -0.39800
N2498       N  0.56233785  0.47816818  0.51055100    -0.37400
N2499       N  0.64872221  0.44471842  0.97185960    -0.38500
N2500       N  0.60191791  0.39612982  0.91056054    -0.40100
C2501       C  0.57480527  0.44236593  0.63484771    -0.05100
C2502       C  0.57722222  0.44578752  0.66810485     0.09100
C2503       C  0.59790797  0.46622563  0.68063320    -0.02400
C2504       C  0.61608095  0.48319120  0.65991969    -0.00700
C2505       C  0.61422415  0.47931092  0.62641776    -0.04300
C2506       C  0.59333881  0.45842103  0.61425030     0.02700
C2507       C  0.55842177  0.42670798  0.68947150     0.09500
C2508       C  0.60082116  0.46928303  0.71495212     0.35400
C2509       C  0.59029112  0.45298276  0.58036567     0.38900
C2510       C  0.55792440  0.40452954  0.69346889    -0.04700
C2511       C  0.53864086  0.38519113  0.70984962     0.02500
C2512       C  0.52003500  0.38809472  0.72410700    -0.04300
C2513       C  0.52096751  0.41072172  0.72061265    -0.00500
C2514       C  0.53977250  0.42965009  0.70284675    -0.03100
C2515       C  0.57738327  0.40160119  0.68040275     0.36200
C2516       C  0.50321661  0.41512201  0.73617480     0.39800
C2517       C  0.53779934  0.36206972  0.71094022     0.38900
C2518       C  0.53987248  0.45219232  0.69800521     0.35900
C2519       C  0.55306587  0.42194429  0.62176234     0.36500
C2520       C  0.63719402  0.50388685  0.67339728     0.39800
N2521       N  0.53728415  0.34369358  0.71157032    -0.38300
N2522       N  0.59296504  0.39935846  0.67005011    -0.39900
N2523       N  0.48916729  0.41878507  0.74863736    -0.37600
N2524       N  0.53996348  0.47018025  0.69405809    -0.40000
N2525       N  0.60315245  0.47157616  0.74237466    -0.39800
N2526       N  0.65400284  0.52038368  0.68433595    -0.37400
N2527       N  0.58726180  0.44777347  0.55362123    -0.38500
N2528       N  0.53572686  0.40570936  0.61139377    -0.40100
C2529       C  0.36097941  0.31931496  0.70522415    -0.05100
C2530       C  0.34063420  0.29903641  0.71853598     0.09100
C2531       C  0.34374776  0.28734248  0.74501959    -0.02400
C2532       C  0.36714160  0.29422131  0.75609857    -0.00700
C2533       C  0.38782100  0.31396071  0.74192176    -0.04300
C2534       C  0.38450974  0.32702231  0.71719028     0.02700
C2535       C  0.31708828  0.28625195  0.70077039     0.09500
C2536       C  0.32276407  0.26713743  0.75969278     0.35400
C2537       C  0.40536970  0.34713417  0.70243775     0.38900
C2538       C  0.31428812  0.26910007  0.67746597    -0.04700
C2539       C  0.29138664  0.25344771  0.66432769     0.02500
C2540       C  0.27072214  0.25459689  0.67449910    -0.04300
C2541       C  0.27374823  0.27265923  0.69661647    -0.00500
C2542       C  0.29689985  0.28839094  0.70984113    -0.03100
C2543       C  0.33501622  0.26689087  0.66794310     0.36200
C2544       C  0.25291711  0.27425794  0.70690244     0.39800
C2545       C  0.28943134  0.23612485  0.64023479     0.38900
C2546       C  0.29992569  0.30637744  0.73333279     0.35900
C2547       C  0.35769201  0.33148610  0.67825630     0.36500
C2548       C  0.36955440  0.27989476  0.78119525     0.39800
N2549       N  0.28829727  0.22239688  0.62122195    -0.38300
N2550       N  0.35155626  0.26515971  0.66051094    -0.39900
N2551       N  0.23619897  0.27542140  0.71505539    -0.37600
N2552       N  0.30236202  0.32081082  0.75202341    -0.40000
N2553       N  0.30603088  0.25110551  0.77141724    -0.39800
N2554       N  0.37070980  0.26774143  0.80079947    -0.37400
N2555       N  0.42205334  0.36312325  0.69057100    -0.38500
N2556       N  0.35502702  0.34122104  0.65671640    -0.40100
C2557       C  0.33619218  0.36146599  0.87203736    -0.05100
C2558       C  0.35746674  0.36295198  0.88441832     0.09100
C2559       C  0.37065408  0.38001350  0.90834845    -0.02400
C2560       C  0.36392955  0.39693414  0.91793214    -0.00700
C2561       C  0.34343058  0.39665250  0.90409598    -0.04300
C2562       C  0.32900698  0.37814826  0.88209139     0.02700
C2563       C  0.36953569  0.35111414  0.86777704     0.09500
C2564       C  0.39215251  0.38101770  0.92180088     0.35400
C2565       C  0.30763460  0.37709893  0.86845264     0.38900
C2566       C  0.38634542  0.36439344  0.84375360    -0.04700
C2567       C  0.40319749  0.35775864  0.83366149     0.02500
C2568       C  0.40246954  0.33669574  0.84608639    -0.04300
C2569       C  0.38415873  0.32215948  0.86813715    -0.00500
C2570       C  0.36810722  0.32973631  0.87959504    -0.03100
C2571       C  0.38695350  0.38571051  0.83039679     0.36200
C2572       C  0.38249898  0.30009782  0.88011577     0.39800
C2573       C  0.42146109  0.37316143  0.81068271     0.38900
C2574       C  0.35062468  0.31606775  0.90417792     0.35900
C2575       C  0.32233030  0.34333406  0.84810581     0.36500
C2576       C  0.37863179  0.41477297  0.94190293     0.39800
N2577       N  0.43602662  0.38587790  0.79268881    -0.38300
N2578       N  0.38731388  0.40261054  0.81974442    -0.39900
N2579       N  0.38100529  0.28239360  0.88965960    -0.37600
N2580       N  0.33664194  0.30518265  0.92381652    -0.40000
N2581       N  0.40928185  0.38179525  0.93239302    -0.39800
N2582       N  0.39075510  0.42892947  0.96080954    -0.37400
N2583       N  0.29057809  0.37629743  0.85756017    -0.38500
N2584       N  0.31127804  0.32876224  0.82907346    -0.40100
C2585       C  0.63596541  0.02841204  0.89149273    -0.05100
C2586       C  0.64027481  0.01149501  0.87521559     0.09100
C2587       C  0.65757771  0.01970753  0.85046508    -0.02400
C2588       C  0.66794481  0.04376488  0.83931870    -0.00700
C2589       C  0.66024608  0.05939866  0.85200275    -0.04300
C2590       C  0.64589045  0.05227272  0.87986647     0.02700
C2591       C  0.62454298  0.98483270  0.88152048     0.09500
C2592       C  0.66363140  0.00299411  0.83525167     0.35400
C2593       C  0.64124912  0.06955020  0.89636077     0.38900
C2594       C  0.60048326  0.97262459  0.87009635    -0.04700
C2595       C  0.58490927  0.94796454  0.87728488     0.02500
C2596       C  0.59295355  0.93525537  0.89680225    -0.04300
C2597       C  0.61780641  0.94689362  0.90544307    -0.00500
C2598       C  0.63338393  0.97164021  0.89822612    -0.03100
C2599       C  0.59148569  0.98572261  0.85164642     0.36200
C2600       C  0.62729634  0.93391098  0.92307990     0.39800
C2601       C  0.56048107  0.93565243  0.86453436     0.38900
C2602       C  0.65828374  0.98380130  0.90913743     0.35900
C2603       C  0.62053168  0.02102235  0.91942470     0.36500
C2604       C  0.68524451  0.05176775  0.81337646     0.39800
N2605       N  0.54103388  0.92580574  0.85426963    -0.38300
N2606       N  0.58428629  0.99625726  0.83718443    -0.39900
N2607       N  0.63486652  0.92344514  0.93692357    -0.37600
N2608       N  0.67817145  0.99345546  0.91777710    -0.40000
N2609       N  0.66852212  0.98959979  0.82339877    -0.39800
N2610       N  0.69915947  0.05818336  0.79278560    -0.37400
N2611       N  0.63782421  0.08345834  0.90971229    -0.38500
N2612       N  0.60831572  0.01543876  0.94182332    -0.40100
C2613       C  0.52618553  0.79059465  0.57757547    -0.05100
C2614       C  0.53408190  0.77426387  0.56916039     0.09100
C2615       C  0.54273496  0.77468262  0.53804603    -0.02400
C2616       C  0.54323779  0.79117206  0.51523232    -0.00700
C2617       C  0.53477193  0.80723489  0.52331614    -0.04300
C2618       C  0.52653811  0.80704962  0.55479564     0.02700
C2619       C  0.53302234  0.75627432  0.59291622     0.09500
C2620       C  0.55066424  0.75770479  0.52938426     0.35400
C2621       C  0.51905398  0.82424699  0.56411916     0.38900
C2622       C  0.51136774  0.73415139  0.59713502    -0.04700
C2623       C  0.51071183  0.71646919  0.61790712     0.02500
C2624       C  0.53182719  0.72079356  0.63463032    -0.04300
C2625       C  0.55340079  0.74323358  0.63081069    -0.00500
C2626       C  0.55391052  0.76093321  0.61015053    -0.03100
C2627       C  0.48987958  0.72936215  0.57939474     0.36200
C2628       C  0.57507343  0.74826751  0.64827620     0.39800
C2629       C  0.48856135  0.69331799  0.62062422     0.38900
C2630       C  0.57597912  0.78396492  0.60634741     0.35900
C2631       C  0.51764524  0.79035074  0.60974861     0.36500
C2632       C  0.55168644  0.79085764  0.98313995     0.39800
N2633       N  0.47093967  0.67483975  0.62281709    -0.38300
N2634       N  0.47272927  0.72551953  0.56526170    -0.39900
N2635       N  0.59240281  0.75227630  0.66209023    -0.37600
N2636       N  0.59353021  0.80238450  0.60324397    -0.40000
N2637       N  0.55692899  0.74410644  0.52257735    -0.39800
N2638       N  0.55854842  0.79063298  0.95762366    -0.37400
N2639       N  0.51314413  0.83800152  0.57158188    -0.38500
N2640       N  0.51082231  0.79006455  0.63544112    -0.40100
C2641       C  0.55428555  0.78690098  0.85698381    -0.05100
C2642       C  0.53209460  0.76696126  0.84735631     0.09100
C2643       C  0.51034791  0.76609688  0.85613866    -0.02400
C2644       C  0.51070797  0.78476436  0.87492638    -0.00700
C2645       C  0.53297283  0.80446802  0.88596224    -0.04300
C2646       C  0.55483051  0.80538307  0.87639040     0.02700
C2647       C  0.53164098  0.74746322  0.82644102     0.09500
C2648       C  0.48749027  0.74594929  0.84546980     0.35400
C2649       C  0.57809619  0.82486722  0.88706260     0.38900
C2650       C  0.53097473  0.72683823  0.83988480    -0.04700
C2651       C  0.52981267  0.70824732  0.81998734     0.02500
C2652       C  0.52974351  0.71029791  0.78630245    -0.04300
C2653       C  0.53057715  0.73122830  0.77302879    -0.00500
C2654       C  0.53158757  0.74959889  0.79298008    -0.03100
C2655       C  0.53129908  0.72473367  0.87431946     0.36200
C2656       C  0.53082330  0.73437632  0.73867640     0.39800
C2657       C  0.52718990  0.68639230  0.83428894     0.38900
C2658       C  0.53259950  0.77090157  0.77904228     0.35900
C2659       C  0.57668180  0.78842249  0.84658559     0.36500
C2660       C  0.48797853  0.78381575  0.88193106     0.39800
N2661       N  0.52486416  0.66884427  0.84568385    -0.38300
N2662       N  0.53164763  0.72317629  0.90182626    -0.39900
N2663       N  0.53116005  0.73727942  0.71136848    -0.37600
N2664       N  0.53343846  0.78790863  0.76797099    -0.40000
N2665       N  0.46928041  0.72986673  0.83691529    -0.39800
N2666       N  0.46982451  0.78302433  0.88743898    -0.37400
N2667       N  0.59673043  0.84036060  0.89546924    -0.38500
N2668       N  0.59450440  0.78964859  0.83806852    -0.40100
C2669       C  0.79378054  0.90606126  0.52838114    -0.05100
C2670       C  0.80130351  0.91616188  0.49771706     0.09100
C2671       C  0.80766347  0.94034665  0.49202665    -0.02400
C2672       C  0.80631574  0.95442709  0.51698078    -0.00700
C2673       C  0.79880153  0.94439797  0.54778161    -0.04300
C2674       C  0.79271466  0.92019622  0.55347743     0.02700
C2675       C  0.80267976  0.90105107  0.97161500     0.09500
C2676       C  0.81581091  0.95070641  0.96058010     0.35400
C2677       C  0.78653623  0.91014332  0.58540362     0.38900
C2678       C  0.78220147  0.88679824  0.95265039    -0.04700
C2679       C  0.78211462  0.86966770  0.93131784     0.02500
C2680       C  0.80270798  0.86670615  0.92882048    -0.04300
C2681       C  0.82366527  0.88204949  0.94702459    -0.00500
C2682       C  0.82363932  0.89927439  0.96807383    -0.03100
C2683       C  0.76089050  0.88926012  0.95604679     0.36200
C2684       C  0.84470229  0.87902968  0.94655228     0.39800
C2685       C  0.76044430  0.85478832  0.91271156     0.38900
C2686       C  0.84485032  0.91456073  0.48729000     0.35900
C2687       C  0.78738729  0.88112734  0.53405079     0.36500
C2688       C  0.81233023  0.97914127  0.51077843     0.39800
N2689       N  0.74297887  0.84287904  0.89823961    -0.38300
N2690       N  0.74395308  0.89129437  0.95887655    -0.39900
N2691       N  0.86166439  0.87690753  0.94690537    -0.37600
N2692       N  0.86173945  0.92673984  0.50262900    -0.40000
N2693       N  0.82233556  0.95901938  0.93550027    -0.39800
N2694       N  0.81718401  0.99887447  0.50580250    -0.37400
N2695       N  0.78178351  0.90198240  0.61080530    -0.38500
N2696       N  0.78231034  0.86123330  0.53836813    -0.40100
C2697       C  0.81292474  0.91620398  0.71193585    -0.05100
C2698       C  0.79085940  0.89436476  0.71568987     0.09100
C2699       C  0.76961662  0.89216431  0.70224871    -0.02400
C2700       C  0.77031453  0.91170455  0.68535176    -0.00700
C2701       C  0.79235697  0.93406337  0.68223751    -0.04300
C2702       C  0.81368768  0.93602483  0.69581507     0.02700
C2703       C  0.78970950  0.87523640  0.73775621     0.09500
C2704       C  0.74691587  0.86974760  0.70618532     0.35400
C2705       C  0.83647105  0.95864602  0.69434506     0.38900
C2706       C  0.79003289  0.87902143  0.77084822    -0.04700
C2707       C  0.79275623  0.86358853  0.79231171     0.02500
C2708       C  0.79370663  0.84291967  0.78111491    -0.04300
C2709       C  0.79116793  0.83801075  0.74781345    -0.00500
C2710       C  0.78971789  0.85441312  0.72624085    -0.03100
C2711       C  0.78776548  0.89920657  0.78283859     0.36200
C2712       C  0.79100782  0.81671249  0.73540847     0.39800
C2713       C  0.79470529  0.86962501  0.82602005     0.38900
C2714       C  0.78874539  0.85020091  0.69211611     0.35900
C2715       C  0.83491186  0.91831769  0.72525705     0.36500
C2716       C  0.74830417  0.90822368  0.67033717     0.39800
N2717       N  0.79647247  0.87514562  0.85263195    -0.38300
N2718       N  0.78580185  0.91519486  0.79230284    -0.39900
N2719       N  0.79074040  0.79963817  0.72547419    -0.37600
N2720       N  0.78795489  0.84686688  0.66485060    -0.40000
N2721       N  0.72883588  0.85183052  0.70931223    -0.39800
N2722       N  0.73072741  0.90535911  0.65831013    -0.37400
N2723       N  0.85469813  0.97663655  0.69329243    -0.38500
N2724       N  0.85237475  0.91986443  0.73588722    -0.40100
C2725       C  0.69209751  0.00169123  0.67483363    -0.05100
C2726       C  0.70065927  0.02249921  0.69426943     0.09100
C2727       C  0.72444654  0.03334876  0.70656396    -0.02400
C2728       C  0.74002612  0.02455534  0.69775907    -0.00700
C2729       C  0.73233919  0.00529642  0.67561942    -0.04300
C2730       C  0.70780824  0.99304864  0.66562593     0.02700
C2731       C  0.68521453  0.03370012  0.70135476     0.09500
C2732       C  0.73329970  0.05433576  0.72727378     0.35400
C2733       C  0.69901940  0.97249580  0.64419569     0.38900
C2734       C  0.66747777  0.02422152  0.72556356    -0.04700
C2735       C  0.65692977  0.03777680  0.73693895     0.02500
C2736       C  0.66439174  0.06107678  0.72440583    -0.04300
C2737       C  0.67890533  0.06844535  0.69670800    -0.00500
C2738       C  0.68973490  0.05514455  0.68563905    -0.03100
C2739       C  0.66099414  0.00106998  0.73976228     0.36200
C2740       C  0.68226919  0.08954835  0.67939029     0.39800
C2741       C  0.63945979  0.02824051  0.76267116     0.38900
C2742       C  0.70639056  0.06412826  0.65897227     0.35900
C2743       C  0.66742132  0.98983446  0.66311841     0.36500
C2744       C  0.76420492  0.03557484  0.71122915     0.39800
N2745       N  0.62540937  0.02049770  0.78308925    -0.38300
N2746       N  0.65573733  0.98245504  0.75074101    -0.39900
N2747       N  0.68446823  0.10608922  0.66523447    -0.37600
N2748       N  0.71976833  0.07150758  0.63778092    -0.40000
N2749       N  0.74051564  0.07124714  0.74350429    -0.39800
N2750       N  0.78345555  0.04424830  0.72203163    -0.37400
N2751       N  0.69204748  0.95605728  0.62715313    -0.38500
N2752       N  0.64769534  0.98028563  0.65385619    -0.40100
C2753       C  0.63948858  0.93180250  0.54343164    -0.05100
C2754       C  0.65279818  0.95500133  0.52956489     0.09100
C2755       C  0.64064529  0.96390103  0.51066410    -0.02400
C2756       C  0.61579851  0.94894314  0.00352368    -0.00700
C2757       C  0.60300078  0.92481540  0.51488237    -0.04300
C2758       C  0.61474006  0.91682814  0.53622785     0.02700
C2759       C  0.67972203  0.96943858  0.53421740     0.09500
C2760       C  0.65395321  0.98799048  0.99721531     0.35400
C2761       C  0.60153269  0.89278067  0.54997636     0.38900
C2762       C  0.69478699  0.96190469  0.51941067    -0.04700
C2763       C  0.71923373  0.97216450  0.52868999     0.02500
C2764       C  0.72891393  0.99031776  0.55247592    -0.04300
C2765       C  0.71463430  0.99998157  0.56415222    -0.00500
C2766       C  0.69002121  0.98929732  0.55544712    -0.03100
C2767       C  0.68480386  0.94262280  0.99576938     0.36200
C2768       C  0.72452975  0.01948634  0.58739489     0.39800
C2769       C  0.73421058  0.96332963  0.51477950     0.38900
C2770       C  0.67493528  0.99775676  0.56993716     0.35900
C2771       C  0.65154577  0.92284120  0.56405081     0.36500
C2772       C  0.60404685  0.95800401  0.98254116     0.39800
N2773       N  0.74616050  0.95626942  0.50375538    -0.38300
N2774       N  0.67696426  0.92717939  0.97706879    -0.39900
N2775       N  0.73247749  0.03505422  0.60591480    -0.37600
N2776       N  0.66295377  0.00460821  0.58139934    -0.40000
N2777       N  0.66451658  0.00730104  0.98670410    -0.39800
N2778       N  0.59456479  0.96512511  0.96581234    -0.37400
N2779       N  0.59102464  0.87356724  0.56080596    -0.38500
N2780       N  0.66109394  0.91546372  0.58022768    -0.40100
C2781       C  0.56410097  0.13309584  0.72367899    -0.05100
C2782       C  0.55831856  0.12280084  0.69287103     0.09100
C2783       C  0.57006879  0.11055381  0.68116475    -0.02400
C2784       C  0.58814397  0.10941809  0.69961633    -0.00700
C2785       C  0.59463217  0.12048398  0.73018061    -0.04300
C2786       C  0.58185795  0.13172457  0.74235637     0.02700
C2787       C  0.54091749  0.12621781  0.67210367     0.09500
C2788       C  0.56375692  0.09945126  0.64977815     0.35400
C2789       C  0.58619710  0.14120748  0.77467771     0.38900
C2790       C  0.54938526  0.14751238  0.65394409    -0.04700
C2791       C  0.53344531  0.15089645  0.63401417     0.02500
C2792       C  0.50867104  0.13277339  0.63150165    -0.04300
C2793       C  0.49992286  0.11208959  0.65135440    -0.00500
C2794       C  0.51604539  0.10875571  0.67122642    -0.03100
C2795       C  0.57475366  0.16592344  0.65552206     0.36200
C2796       C  0.47449801  0.09384050  0.65094269     0.39800
C2797       C  0.54266927  0.17343005  0.61652792     0.38900
C2798       C  0.50714460  0.08711382  0.69046769     0.35900
C2799       C  0.55180733  0.14535441  0.73604069     0.36500
C2800       C  0.60055948  0.09752521  0.68655993     0.39800
N2801       N  0.55004555  0.19138922  0.60258360    -0.38300
N2802       N  0.59498702  0.18058690  0.65681529    -0.39900
N2803       N  0.45419382  0.07929209  0.65090399    -0.37600
N2804       N  0.50006619  0.06981487  0.70578765    -0.40000
N2805       N  0.55859774  0.09056357  0.62474744    -0.39800
N2806       N  0.61044505  0.08799420  0.67615282    -0.37400
N2807       N  0.58931225  0.14870716  0.80047775    -0.38500
N2808       N  0.54199591  0.15516191  0.74576040    -0.40100
C2809       C  0.56677757  0.13543097  0.96920722    -0.05100
C2810       C  0.56131101  0.12811370  0.93699477     0.09100
C2811       C  0.53834433  0.12163289  0.92449243    -0.02400
C2812       C  0.52069932  0.12194728  0.94422817    -0.00700
C2813       C  0.52595895  0.12889780  0.97666263    -0.04300
C2814       C  0.54917721  0.13606899  0.98898101     0.02700
C2815       C  0.57980307  0.12793029  0.91536258     0.09500
C2816       C  0.53303141  0.11496863  0.89104661     0.35400
C2817       C  0.55478861  0.14370870  0.02203378     0.38900
C2818       C  0.57854280  0.10588549  0.90738766    -0.04700
C2819       C  0.59319309  0.10496216  0.88280978     0.02500
C2820       C  0.60956374  0.12635064  0.86607798    -0.04300
C2821       C  0.61129113  0.14867830  0.87530618    -0.00500
C2822       C  0.59652019  0.14934178  0.89983975    -0.03100
C2823       C  0.56159551  0.08399399  0.92412518     0.36200
C2824       C  0.62705155  0.17099999  0.85851137     0.39800
C2825       C  0.59088376  0.08175548  0.87479348     0.38900
C2826       C  0.59776920  0.17201916  0.90834457     0.35900
C2827       C  0.59044837  0.14215995  0.98190844     0.36500
C2828       C  0.49739459  0.11598504  0.93069888     0.39800
N2829       N  0.58869954  0.06310063  0.86843147    -0.38300
N2830       N  0.54804801  0.06659869  0.93753499    -0.39900
N2831       N  0.63952644  0.18884600  0.84517344    -0.37600
N2832       N  0.59875279  0.19007400  0.91517380    -0.40000
N2833       N  0.52889206  0.10969335  0.86437726    -0.39800
N2834       N  0.47888174  0.11129201  0.91979381    -0.37400
N2835       N  0.55924805  0.14982435  0.54840999    -0.38500
N2836       N  0.60935581  0.14751270  0.99201439    -0.40100
C2837       C  0.48158732  0.21885202  0.93961907    -0.05100
C2838       C  0.46286950  0.20953397  0.91682038     0.09100
C2839       C  0.44813959  0.18431946  0.91320616    -0.02400
C2840       C  0.45176255  0.16838666  0.93281103    -0.00700
C2841       C  0.47017863  0.17758339  0.95649057    -0.04300
C2842       C  0.48559504  0.20307483  0.95886339     0.02700
C2843       C  0.46007133  0.22647128  0.89489302     0.09500
C2844       C  0.42903110  0.17481963  0.88938103     0.35400
C2845       C  0.50624858  0.21335459  0.98031484     0.38900
C2846       C  0.47017474  0.23063229  0.86410148    -0.04700
C2847       C  0.46898468  0.24758310  0.84381767     0.02500
C2848       C  0.45859637  0.26148727  0.85466658    -0.04300
C2849       C  0.44802586  0.25685764  0.88551674    -0.00500
C2850       C  0.44849627  0.23917125  0.90529699    -0.03100
C2851       C  0.48209824  0.21754539  0.85341520     0.36200
C2852       C  0.43721757  0.27061404  0.89754404     0.39800
C2853       C  0.47769031  0.24976978  0.81132409     0.38900
C2854       C  0.43716124  0.23404351  0.93651030     0.35900
C2855       C  0.49678953  0.24485860  0.94318588     0.36500
C2856       C  0.43618592  0.14262540  0.92837704     0.39800
N2857       N  0.48458884  0.25110780  0.78545422    -0.38300
N2858       N  0.49160627  0.20710416  0.84498960    -0.39900
N2859       N  0.42853035  0.28147127  0.90737458    -0.37600
N2860       N  0.42803333  0.22987928  0.96135970    -0.40000
N2861       N  0.41383049  0.16729664  0.87034859    -0.39800
N2862       N  0.42359002  0.12218180  0.92383597    -0.37400
N2863       N  0.52272772  0.22168019  0.99739020    -0.38500
N2864       N  0.50870647  0.26560719  0.94603904    -0.40100
C2865       C  0.47548820  0.24927825  0.68298670    -0.05100
C2866       C  0.45295379  0.23412180  0.66845475     0.09100
C2867       C  0.43262197  0.23597469  0.67703174    -0.02400
C2868       C  0.43450780  0.25224922  0.70120385    -0.00700
C2869       C  0.45696253  0.26699673  0.71680613    -0.04300
C2870       C  0.47759761  0.26576526  0.70691307     0.02700
C2871       C  0.45044624  0.21505905  0.64561704     0.09500
C2872       C  0.40972068  0.22095726  0.66095091     0.35400
C2873       C  0.50089645  0.28048714  0.72221346     0.38900
C2874       C  0.44247920  0.19144911  0.65687990    -0.04700
C2875       C  0.44246983  0.17394582  0.63638752     0.02500
C2876       C  0.45059629  0.18006614  0.60457665    -0.04300
C2877       C  0.45748455  0.20337313  0.59290201    -0.00500
C2878       C  0.45749315  0.22089268  0.61346801    -0.03100
C2879       C  0.43545113  0.18556391  0.69005775     0.36200
C2880       C  0.46437787  0.20927335  0.55972714     0.39800
C2881       C  0.43550087  0.15007312  0.64865012     0.38900
C2882       C  0.46549298  0.24515910  0.60196759     0.35900
C2883       C  0.49642244  0.24738170  0.67380004     0.36500
C2884       C  0.41329042  0.25391173  0.70943606     0.39800
N2885       N  0.42999380  0.13103982  0.65835764    -0.38300
N2886       N  0.42994441  0.18094000  0.71655437    -0.39900
N2887       N  0.46967520  0.21409572  0.53321776    -0.37600
N2888       N  0.47198951  0.26457805  0.59293296    -0.40000
N2889       N  0.39151313  0.20899410  0.64800070    -0.39800
N2890       N  0.39620304  0.25498537  0.71582183    -0.37400
N2891       N  0.51951569  0.29200558  0.73441683    -0.38500
N2892       N  0.51307165  0.24583154  0.66641014    -0.40100
C2893       C  0.36419148  0.06864878  0.94717661    -0.05100
C2894       C  0.34118521  0.06237741  0.95914155     0.09100
C2895       C  0.33842661  0.06386862  0.99263655    -0.02400
C2896       C  0.35897218  0.07368842  0.51321272    -0.00700
C2897       C  0.38195435  0.07999272  0.50080883    -0.04300
C2898       C  0.38343622  0.07452845  0.96824997     0.02700
C2899       C  0.32009432  0.05327347  0.93624731     0.09500
C2900       C  0.31455058  0.05523706  0.50583725     0.35400
C2901       C  0.40445011  0.07376306  0.95635355     0.38900
C2902       C  0.31355139  0.03243995  0.91723183    -0.04700
C2903       C  0.29504079  0.02491626  0.89417759     0.02500
C2904       C  0.28054085  0.03573202  0.89302523    -0.04300
C2905       C  0.28767885  0.05720332  0.91047936    -0.00500
C2906       C  0.30789046  0.06641701  0.93122180    -0.03100
C2907       C  0.32525780  0.01817792  0.92198663     0.36200
C2908       C  0.27404424  0.06967183  0.90697877     0.39800
C2909       C  0.29106713  0.00632151  0.87112053     0.38900
C2910       C  0.31601495  0.08930513  0.94740847     0.35900
C2911       C  0.36841700  0.06980143  0.91295006     0.36500
C2912       C  0.35635205  0.07703304  0.54687286     0.39800
N2913       N  0.28848385  0.99220845  0.85183501    -0.38300
N2914       N  0.33462876  0.00682654  0.92573027    -0.39900
N2915       N  0.26315077  0.07959998  0.90402143    -0.37600
N2916       N  0.32253352  0.10761478  0.96025404    -0.40000
N2917       N  0.29545657  0.04821370  0.51645797    -0.39800
N2918       N  0.35421267  0.07956769  0.57382080    -0.37400
N2919       N  0.42109247  0.07300105  0.94686192    -0.38500
N2920       N  0.37178547  0.07087696  0.88568850    -0.40100
C2921       C  0.17918085  0.06412268  0.97897942    -0.05100
C2922       C  0.20068778  0.07723660  0.99667588     0.09100
C2923       C  0.21858764  0.07041116  0.99537643    -0.02400
C2924       C  0.21546034  0.05120944  0.97527489    -0.00700
C2925       C  0.19426503  0.03862629  0.95648314    -0.04300
C2926       C  0.17578872  0.04471487  0.95940065     0.02700
C2927       C  0.20368906  0.09749697  0.51784539     0.09500
C2928       C  0.24029160  0.08329923  0.01461980     0.35400
C2929       C  0.15278259  0.03047937  0.94312755     0.38900
C2930       C  0.19809241  0.09312050  0.55053613    -0.04700
C2931       C  0.19898455  0.11146977  0.57024852     0.02500
C2932       C  0.20408384  0.13397740  0.55710239    -0.04300
C2933       C  0.20987862  0.13840199  0.52429428    -0.00500
C2934       C  0.21006104  0.12030650  0.00491771    -0.03100
C2935       C  0.19077386  0.06941818  0.56371384     0.36200
C2936       C  0.21448238  0.16103214  0.51014061     0.39800
C2937       C  0.19565040  0.10732380  0.60434548     0.38900
C2938       C  0.21654436  0.12500135  0.97144681     0.35900
C2939       C  0.16046311  0.07066834  0.48104472     0.36500
C2940       C  0.23431484  0.04487462  0.97358908     0.39800
N2941       N  0.19334760  0.10363930  0.63150603    -0.38300
N2942       N  0.18479070  0.05045885  0.57410164    -0.39900
N2943       N  0.21784626  0.17893854  0.99875258    -0.37600
N2944       N  0.22179546  0.12865723  0.94474957    -0.40000
N2945       N  0.25755413  0.09349850  0.03009895    -0.39800
N2946       N  0.24936225  0.03979861  0.97256905    -0.37400
N2947       N  0.13440961  0.01903698  0.93030451    -0.38500
N2948       N  0.14559464  0.07596529  0.48268059    -0.40100
C2949       C  0.19393261  0.08927128  0.79726040    -0.05100
C2950       C  0.20457608  0.09339044  0.76675603     0.09100
C2951       C  0.21533251  0.07994042  0.75637054    -0.02400
C2952       C  0.21429270  0.06143053  0.77565650    -0.00700
C2953       C  0.20266940  0.05643448  0.80576397    -0.04300
C2954       C  0.19291218  0.07079102  0.81676451     0.02700
C2955       C  0.20255059  0.11020918  0.74400752     0.09500
C2956       C  0.22675884  0.08466301  0.72519730     0.35400
C2957       C  0.18183743  0.06664938  0.84810103     0.38900
C2958       C  0.22254003  0.13332966  0.73835125    -0.04700
C2959       C  0.22156642  0.14789802  0.71380693     0.02500
C2960       C  0.20056102  0.13925703  0.69460871    -0.04300
C2961       C  0.18020305  0.11632026  0.70119339    -0.00500
C2962       C  0.18126061  0.10189915  0.72581717    -0.03100
C2963       C  0.24429565  0.14184297  0.75742236     0.36200
C2964       C  0.15861627  0.10675488  0.68147500     0.39800
C2965       C  0.24212305  0.17190636  0.70888619     0.38900
C2966       C  0.16073451  0.07800987  0.73171719     0.35900
C2967       C  0.18375387  0.10387218  0.80825866     0.36500
C2968       C  0.22382451  0.04656506  0.76337786     0.39800
N2969       N  0.25870344  0.19100289  0.70540259    -0.38300
N2970       N  0.26167791  0.14858314  0.77256076    -0.39900
N2971       N  0.14148314  0.09898791  0.66560310    -0.37600
N2972       N  0.14442478  0.05895873  0.73650866    -0.40000
N2973       N  0.23591459  0.08857289  0.70038078    -0.39800
N2974       N  0.23136441  0.03468440  0.75351540    -0.37400
N2975       N  0.17293858  0.06339778  0.87304075    -0.38500
N2976       N  0.17568229  0.11557031  0.81701192    -0.40100
C2977       C  0.45011007  0.88739435  0.54347110    -0.05100
C2978       C  0.43189023  0.86576287  0.55720829     0.09100
C2979       C  0.43294807  0.84433251  0.55320180    -0.02400
C2980       C  0.45254470  0.84466271  0.53692642    -0.00700
C2981       C  0.47096127  0.86631830  0.52293637    -0.04300
C2982       C  0.46937591  0.88769365  0.52620044     0.02700
C2983       C  0.41318639  0.86582228  0.57923194     0.09500
C2984       C  0.41364009  0.82178985  0.56595088     0.35400
C2985       C  0.48689748  0.90991680  0.51067587     0.38900
C2986       C  0.39234843  0.86568447  0.56749228    -0.04700
C2987       C  0.37421220  0.86390982  0.58882253     0.02500
C2988       C  0.37628298  0.86129555  0.62218195    -0.04300
C2989       C  0.39755685  0.86174265  0.63365382    -0.00500
C2990       C  0.41604481  0.86481657  0.61242740    -0.03100
C2991       C  0.38945611  0.86709005  0.53336833     0.36200
C2992       C  0.40113769  0.85958702  0.66749293     0.39800
C2993       C  0.35311114  0.86397440  0.57609069     0.38900
C2994       C  0.43846255  0.86734005  0.62481389     0.35900
C2995       C  0.44895035  0.90939804  0.54708737     0.36500
C2996       C  0.45408069  0.82274275  0.53582264     0.39800
N2997       N  0.33632529  0.86416456  0.56596856    -0.38300
N2998       N  0.38712331  0.86826092  0.50613307    -0.39900
N2999       N  0.40425685  0.85772287  0.69431785    -0.37600
N3000       N  0.45645187  0.86960856  0.63456594    -0.40000
N3001       N  0.39809401  0.80385816  0.57599718    -0.39800
N3002       N  0.45538388  0.80527262  0.03532204    -0.37400
N3003       N  0.50074083  0.92764661  0.49816229    -0.38500
N3004       N  0.44792812  0.92691567  0.54982678    -0.40100
C3005       C  0.43225734  0.88391703  0.79601224    -0.05100
C3006       C  0.42731008  0.86349552  0.81438750     0.09100
C3007       C  0.40504637  0.84191381  0.81082441    -0.02400
C3008       C  0.38717973  0.84107231  0.79018960    -0.00700
C3009       C  0.39165703  0.86185159  0.77243509    -0.04300
C3010       C  0.41465285  0.88306633  0.77482914     0.02700
C3011       C  0.44472725  0.86520035  0.83947243     0.09500
C3012       C  0.40026409  0.82078695  0.82941166     0.35400
C3013       C  0.42037157  0.90409824  0.75548232     0.38900
C3014       C  0.44105781  0.86955464  0.87146736    -0.04700
C3015       C  0.45667339  0.87012233  0.89563733     0.02500
C3016       C  0.47608226  0.86636130  0.88789059    -0.04300
C3017       C  0.48006758  0.86251747  0.85575183    -0.00500
C3018       C  0.46438017  0.86191205  0.83157795    -0.03100
C3019       C  0.42090594  0.87308203  0.87951648     0.36200
C3020       C  0.50057842  0.85962124  0.84754872     0.39800
C3021       C  0.45205419  0.87355816  0.92859594     0.38900
C3022       C  0.46826308  0.85768657  0.79863854     0.35900
C3023       C  0.45525369  0.90606818  0.79977443     0.36500
C3024       C  0.36376802  0.81914245  0.78900186     0.39800
N3025       N  0.44801875  0.87621510  0.95476045    -0.38300
N3026       N  0.40478943  0.87582785  0.88586815    -0.39900
N3027       N  0.51701418  0.85740680  0.84116497    -0.37600
N3028       N  0.47137303  0.85434828  0.77233111    -0.40000
N3029       N  0.39650385  0.80400743  0.84431648    -0.39800
N3030       N  0.34517454  0.80154938  0.78834385    -0.37400
N3031       N  0.42493218  0.92088708  0.74008379    -0.38500
N3032       N  0.47360226  0.92370986  0.80294228    -0.40100
C3033       C  0.24671507  0.88071634  0.77942658    -0.05100
C3034       C  0.25000582  0.90425885  0.77978360     0.09100
C3035       C  0.26501622  0.92115045  0.75653165    -0.02400
C3036       C  0.27836738  0.91521926  0.73499586    -0.00700
C3037       C  0.27665933  0.89234394  0.73648788    -0.04300
C3038       C  0.25966664  0.87467723  0.75746207     0.02700
C3039       C  0.23796317  0.91154625  0.80473337     0.09500
C3040       C  0.26728798  0.94491659  0.75556131     0.35400
C3041       C  0.25565278  0.85023303  0.75649605     0.38900
C3042       C  0.25024407  0.92288227  0.83334468    -0.04700
C3043       C  0.24070265  0.93359730  0.85406331     0.02500
C3044       C  0.21934447  0.93363228  0.84555561    -0.04300
C3045       C  0.20510215  0.91850117  0.82029298    -0.00500
C3046       C  0.21461507  0.90801459  0.79937412    -0.03100
C3047       C  0.27311293  0.92432446  0.84071686     0.36200
C3048       C  0.18048510  0.91350831  0.81628551     0.39800
C3049       C  0.25296951  0.94488640  0.88363947     0.38900
C3050       C  0.20086228  0.89454297  0.77162259     0.35900
C3051       C  0.23073307  0.86303790  0.80250780     0.36500
C3052       C  0.29430705  0.93280059  0.71185890     0.39800
N3053       N  0.26260299  0.95367033  0.90746009    -0.38300
N3054       N  0.29135312  0.92541068  0.84656760    -0.39900
N3055       N  0.16061884  0.90895333  0.81345159    -0.37600
N3056       N  0.18986238  0.88382803  0.74945614    -0.40000
N3057       N  0.26898940  0.96383833  0.75490465    -0.39800
N3058       N  0.30676058  0.94674808  0.69307971    -0.37400
N3059       N  0.25203976  0.83058230  0.75540353    -0.38500
N3060       N  0.21804571  0.84899174  0.82103792    -0.40100
C3061       C  0.39200570  0.98656734  0.65981721    -0.05100
C3062       C  0.40628335  0.98511080  0.63494831     0.09100
C3063       C  0.41114426  0.96582958  0.63508232    -0.02400
C3064       C  0.40019881  0.94724318  0.65807597    -0.00700
C3065       C  0.38375482  0.94726438  0.68069867    -0.04300
C3066       C  0.38091835  0.96777024  0.68269136     0.02700
C3067       C  0.41641584  0.00403102  0.60897425     0.09500
C3068       C  0.42669135  0.96463571  0.61076543     0.35400
C3069       C  0.36634017  0.96928536  0.70809425     0.38900
C3070       C  0.44101096  0.02223198  0.60942817    -0.04700
C3071       C  0.44993894  0.04121887  0.58690081     0.02500
C3072       C  0.43410825  0.04311969  0.56488037    -0.04300
C3073       C  0.40998703  0.02392910  0.56272945    -0.00500
C3074       C  0.40131082  0.00423485  0.58431877    -0.03100
C3075       C  0.45680071  0.02227875  0.63438003     0.36200
C3076       C  0.39356724  0.02547174  0.54016563     0.39800
C3077       C  0.47525706  0.05987109  0.58767089     0.38900
C3078       C  0.37654684  0.98459058  0.58196950     0.35900
C3079       C  0.38825269  0.00714793  0.66132831     0.36500
C3080       C  0.40566727  0.92780089  0.65834270     0.39800
N3081       N  0.49543831  0.07474848  0.58824075    -0.38300
N3082       N  0.46932498  0.02232734  0.65440946    -0.39900
N3083       N  0.38046546  0.02677501  0.52222253    -0.37600
N3084       N  0.35680245  0.96884868  0.58002293    -0.40000
N3085       N  0.43917354  0.96380998  0.59137142    -0.39800
N3086       N  0.41058485  0.91265583  0.65884502    -0.37400
N3087       N  0.35508648  0.97066584  0.72880899    -0.38500
N3088       N  0.38527265  0.02360047  0.66239464    -0.40100
C3089       C  0.87209844  0.77102294  0.77663867    -0.05100
C3090       C  0.88280832  0.78792107  0.75171635     0.09100
C3091       C  0.87745649  0.80671648  0.74822811    -0.02400
C3092       C  0.86144249  0.80865591  0.76955558    -0.00700
C3093       C  0.85079549  0.79187979  0.79489608    -0.04300
C3094       C  0.85638014  0.77316011  0.79844584     0.02700
C3095       C  0.89966623  0.78600721  0.72869600     0.09500
C3096       C  0.88821896  0.82387997  0.72224171     0.35400
C3097       C  0.84687745  0.75674387  0.82529549     0.38900
C3098       C  0.89122509  0.77564955  0.69830403    -0.04700
C3099       C  0.90755111  0.77629813  0.67512818     0.02500
C3100       C  0.93250091  0.78711159  0.68241052    -0.04300
C3101       C  0.94067225  0.79630818  0.71355474    -0.00500
C3102       C  0.92432125  0.79593863  0.73648864    -0.03100
C3103       C  0.86569999  0.76474025  0.69076590     0.36200
C3104       C  0.96583317  0.80579334  0.72230386     0.39800
C3105       C  0.89867957  0.76680586  0.64339325     0.38900
C3106       C  0.93291439  0.80619034  0.76798262     0.35900
C3107       C  0.87704601  0.75125304  0.77944120     0.36500
C3108       C  0.85545144  0.82758822  0.76464070     0.39800
N3109       N  0.89157664  0.75925587  0.61808752    -0.38300
N3110       N  0.84532196  0.75603749  0.68485770    -0.39900
N3111       N  0.98588508  0.81333058  0.72929758    -0.37600
N3112       N  0.93978354  0.81435456  0.79310489    -0.40000
N3113       N  0.89673427  0.83744478  0.70140371    -0.39800
N3114       N  0.85079807  0.84275269  0.76064026    -0.37400
N3115       N  0.83960249  0.74378103  0.84690777    -0.38500
N3116       N  0.88095237  0.73543315  0.78142398    -0.40100
C3117       C  0.85647114  0.78437262  0.98976168    -0.05100
C3118       C  0.88144032  0.80118048  0.98818555     0.09100
C3119       C  0.88989369  0.82110181  0.96747009    -0.02400
C3120       C  0.87361432  0.82392394  0.94765577    -0.00700
C3121       C  0.84837598  0.80696497  0.94878581    -0.04300
C3122       C  0.83993897  0.78732462  0.97043009     0.02700
C3123       C  0.89909806  0.79853040  0.50899690     0.09500
C3124       C  0.91556098  0.83870942  0.96647954     0.35400
C3125       C  0.81443557  0.76943558  0.97203893     0.38900
C3126       C  0.91200683  0.78758908  0.99699585    -0.04700
C3127       C  0.92996530  0.78674776  0.51590008     0.02500
C3128       C  0.93493064  0.79662917  0.54715996    -0.04300
C3129       C  0.92164936  0.80742687  0.55908121    -0.00500
C3130       C  0.90385024  0.80827663  0.54007362    -0.03100
C3131       C  0.90682247  0.77729386  0.96509981     0.36200
C3132       C  0.92570058  0.81728287  0.59124715     0.39800
C3133       C  0.94381982  0.77646206  0.00256172     0.38900
C3134       C  0.89027039  0.81919352  0.55249057     0.35900
C3135       C  0.84791322  0.76371916  0.01088452     0.36500
C3136       C  0.88323533  0.84440668  0.92603241     0.39800
N3137       N  0.95497382  0.76838607  0.99182149    -0.38300
N3138       N  0.90256984  0.76903102  0.93967772    -0.39900
N3139       N  0.92889043  0.82526217  0.61680473    -0.37600
N3140       N  0.87935024  0.82779975  0.56236535    -0.40000
N3141       N  0.93601868  0.85271575  0.96575508    -0.39800
N3142       N  0.89118645  0.86067234  0.90867685    -0.37400
N3143       N  0.79413038  0.75506083  0.97369534    -0.38500
N3144       N  0.84120516  0.74726861  0.52772926    -0.40100
C3145       C  0.09431562  0.87474939  0.53089588    -0.05100
C3146       C  0.08455483  0.87916976  0.50321997     0.09100
C3147       C  0.05939050  0.86683627  0.49825393    -0.02400
C3148       C  0.04386889  0.85074953  0.52156346    -0.00700
C3149       C  0.05347385  0.84749405  0.55048417    -0.04300
C3150       C  0.07886215  0.85930544  0.55479044     0.02700
C3151       C  0.10081865  0.89807299  0.98027608     0.09500
C3152       C  0.04944486  0.87111858  0.96934485     0.35400
C3153       C  0.08922341  0.85682989  0.58443321     0.38900
C3154       C  0.10705987  0.89147112  0.95118002    -0.04700
C3155       C  0.12370339  0.90949761  0.93058383     0.02500
C3156       C  0.13417966  0.93410286  0.93918051    -0.04300
C3157       C  0.12763332  0.94068238  0.96812561    -0.00500
C3158       C  0.11071477  0.92268649  0.98842576    -0.03100
C3159       C  0.09660397  0.86613023  0.94275897     0.36200
C3160       C  0.13941859  0.96582161  0.97812591     0.39800
C3161       C  0.13006013  0.90271335  0.90061439     0.38900
C3162       C  0.10376919  0.92942723  0.01805241     0.35900
C3163       C  0.12035972  0.88652528  0.53492100     0.36500
C3164       C  0.01801540  0.83751167  0.51547600     0.39800
N3165       N  0.13501304  0.89712232  0.87674129    -0.38300
N3166       N  0.08819550  0.84586658  0.43609126    -0.39900
N3167       N  0.14888011  0.98574408  0.98661772    -0.37600
N3168       N  0.09823215  0.93476194  0.04169450    -0.40000
N3169       N  0.04158657  0.87446615  0.94624786    -0.39800
N3170       N  0.99742732  0.82707685  0.51051180    -0.37400
N3171       N  0.09754123  0.85500160  0.60811126    -0.38500
N3172       N  0.14113059  0.89590608  0.53796262    -0.40100
C3173       C  0.08550803  0.89637388  0.69576267    -0.05100
C3174       C  0.08911446  0.89124719  0.72734303     0.09100
C3175       C  0.07520413  0.86744025  0.73914909    -0.02400
C3176       C  0.05796101  0.84877967  0.71931926    -0.00700
C3177       C  0.05410462  0.85392997  0.68770522    -0.04300
C3178       C  0.06816463  0.87791043  0.67603039     0.02700
C3179       C  0.10741864  0.91122313  0.74815153     0.09500
C3180       C  0.07850180  0.86226189  0.77187853     0.35400
C3181       C  0.06548121  0.88366996  0.64327762     0.38900
C3182       C  0.09993758  0.92297820  0.76999926    -0.04700
C3183       C  0.11712210  0.94236634  0.78879935     0.02500
C3184       C  0.14215546  0.94979477  0.78679393    -0.04300
C3185       C  0.14965218  0.93882998  0.76328031    -0.00500
C3186       C  0.13231481  0.91945455  0.74447543    -0.03100
C3187       C  0.07438822  0.91504336  0.77309030     0.36200
C3188       C  0.17508680  0.94686315  0.75861058     0.39800
C3189       C  0.10886354  0.95525072  0.80914437     0.38900
C3190       C  0.14003509  0.90761320  0.72153841     0.35900
C3191       C  0.09969101  0.92084756  0.68362820     0.36500
C3192       C  0.04386454  0.82443031  0.73174725     0.39800
N3193       N  0.10221977  0.96555831  0.82518360    -0.38300
N3194       N  0.05400238  0.90860666  0.77563768    -0.39900
N3195       N  0.19533734  0.95314309  0.75476802    -0.37600
N3196       N  0.14613776  0.89813230  0.70322275    -0.40000
N3197       N  0.08104062  0.85820466  0.79807837    -0.39800
N3198       N  0.03265973  0.80497182  0.74161978    -0.37400
N3199       N  0.06345281  0.88845778  0.61723361    -0.38500
N3200       N  0.11108671  0.94037478  0.67406011    -0.40100
C3201       C  0.06329602  0.69952700  0.55385140    -0.05100
C3202       C  0.03988590  0.69049418  0.54085807     0.09100
C3203       C  0.02983750  0.66939289  0.52180688    -0.02400
C3204       C  0.04393373  0.65884854  0.51320748    -0.00700
C3205       C  0.06840758  0.66977952  0.52289212    -0.04300
C3206       C  0.07766960  0.68948118  0.54444650     0.02700
C3207       C  0.02673823  0.70437724  0.54507171     0.09500
C3208       C  0.00549148  0.65948084  0.50938430     0.35400
C3209       C  0.10258170  0.70040380  0.55519331     0.38900
C3210       C  0.03520511  0.72682295  0.52943946    -0.04700
C3211       C  0.02460800  0.74121420  0.53595296     0.02500
C3212       C  0.00484524  0.73288309  0.55713651    -0.04300
C3213       C  0.99471801  0.70928016  0.56992285    -0.00500
C3214       C  0.00614403  0.69545899  0.56483810    -0.03100
C3215       C  0.05547486  0.73554559  0.00764344     0.36200
C3216       C  0.97354342  0.69986403  0.59027289     0.39800
C3217       C  0.03463154  0.76509551  0.52193281     0.38900
C3218       C  0.99773732  0.67279857  0.58163256     0.35900
C3219       C  0.07296641  0.71989290  0.57574593     0.36500
C3220       C  0.03396774  0.63824246  0.49166948     0.39800
N3221       N  0.04260445  0.78416862  0.01085604    -0.38300
N3222       N  0.07174175  0.74253360  0.99036805    -0.39900
N3223       N  0.95653001  0.69222762  0.60628643    -0.37600
N3224       N  0.99126656  0.65476455  0.59505673    -0.40000
N3225       N  0.98599193  0.65169416  0.49978480    -0.39800
N3226       N  0.02599989  0.62182568  0.47446566    -0.37400
N3227       N  0.12250140  0.70916852  0.56353885    -0.38500
N3228       N  0.08066365  0.73613590  0.59322566    -0.40100
C3229       C  0.20089180  0.72918312  0.57787800    -0.05100
C3230       C  0.21283334  0.75437354  0.57305057     0.09100
C3231       C  0.20847582  0.76379172  0.54499998    -0.02400
C3232       C  0.19308291  0.74803241  0.52107340    -0.00700
C3233       C  0.18180379  0.72264035  0.52521186    -0.04300
C3234       C  0.18541003  0.71333453  0.55411931     0.02700
C3235       C  0.23148997  0.77095819  0.59639050     0.09500
C3236       C  0.22036262  0.78977966  0.54050256     0.35400
C3237       C  0.17302570  0.68744551  0.55974595     0.38900
C3238       C  0.25516904  0.77467867  0.59451271    -0.04700
C3239       C  0.27321136  0.79093331  0.61555775     0.02500
C3240       C  0.26770538  0.80371882  0.63859435    -0.04300
C3241       C  0.24388307  0.79981181  0.64061044    -0.00500
C3242       C  0.22578165  0.78330479  0.61968112    -0.03100
C3243       C  0.26107507  0.76216125  0.57028248     0.36200
C3244       C  0.23791400  0.81264149  0.66425181     0.39800
C3245       C  0.29778343  0.79545724  0.61222917     0.38900
C3246       C  0.20127968  0.77905046  0.62188365     0.35900
C3247       C  0.20481490  0.71963181  0.60728539     0.36500
C3248       C  0.18981097  0.75809681  0.99167489     0.39800
N3249       N  0.31738419  0.79913053  0.60956733    -0.38300
N3250       N  0.26574060  0.75217375  0.55092025    -0.39900
N3251       N  0.23304201  0.82289423  0.68296187    -0.37600
N3252       N  0.18170159  0.77558516  0.62356217    -0.40000
N3253       N  0.22979439  0.81051349  0.53703658    -0.39800
N3254       N  0.18724150  0.76615212  0.96823860    -0.37400
N3255       N  0.16322536  0.66680672  0.56423613    -0.38500
N3256       N  0.20797827  0.71208304  0.63078066    -0.40100
C3257       C  0.23157517  0.75517353  0.88197634    -0.05100
C3258       C  0.22644375  0.76242037  0.85265607     0.09100
C3259       C  0.20226725  0.75156518  0.84186519    -0.02400
C3260       C  0.18334667  0.73305751  0.85993144    -0.00700
C3261       C  0.18840644  0.72584860  0.88955222    -0.04300
C3262       C  0.21270141  0.73752485  0.90074265     0.02700
C3263       C  0.24684089  0.78029099  0.83216845     0.09500
C3264       C  0.19698926  0.75937891  0.81193764     0.35400
C3265       C  0.21846391  0.73210610  0.93214221     0.38900
C3266       C  0.25636196  0.77181515  0.80845621    -0.04700
C3267       C  0.27619413  0.78822197  0.78984880     0.02500
C3268       C  0.28586023  0.81371647  0.79302504    -0.04300
C3269       C  0.27661653  0.82210432  0.81783303    -0.00500
C3270       C  0.25744427  0.80539814  0.83748577    -0.03100
C3271       C  0.24554345  0.74595242  0.80307910     0.36200
C3272       C  0.28604777  0.84776296  0.82288754     0.39800
C3273       C  0.28681405  0.77836421  0.76805206     0.38900
C3274       C  0.24835943  0.81393960  0.86318386     0.35900
C3275       C  0.25648055  0.76564216  0.89257348     0.36500
C3276       C  0.15890822  0.72084336  0.84734132     0.39800
N3277       N  0.29516863  0.77037441  0.75073544    -0.38300
N3278       N  0.23680371  0.72536434  0.79859144    -0.39900
N3279       N  0.29333474  0.86818583  0.82714338    -0.37600
N3280       N  0.24108842  0.82056155  0.88388195    -0.40000
N3281       N  0.19287620  0.76576776  0.78810125    -0.39800
N3282       N  0.13942840  0.71100299  0.83719021    -0.37400
N3283       N  0.22311702  0.72788586  0.95717611    -0.38500
N3284       N  0.27634733  0.77387318  0.90090926    -0.40100
C3285       C  0.94414854  0.64433687  0.74352584    -0.05100
C3286       C  0.94698060  0.64805238  0.71038970     0.09100
C3287       C  0.93637560  0.62786814  0.68953223    -0.02400
C3288       C  0.92217450  0.60415165  0.70191064    -0.00700
C3289       C  0.91705603  0.60077599  0.73487987    -0.04300
C3290       C  0.92824562  0.62122715  0.75561332     0.02700
C3291       C  0.95814277  0.67348158  0.69821954     0.09500
C3292       C  0.93890953  0.63163092  0.65533750     0.35400
C3293       C  0.92251440  0.61941315  0.78939526     0.38900
C3294       C  0.98148776  0.68530185  0.68466141     0.06100
C3295       C  0.99180123  0.70950917  0.67411046     0.02500
C3296       C  0.97920231  0.72236359  0.67841301    -0.04300
C3297       C  0.95662958  0.71095357  0.69428884    -0.00500
C3298       C  0.94576351  0.68644165  0.70291629    -0.03100
C3299       C  0.99462277  0.67235049  0.68094008     0.36200
C3300       C  0.94413056  0.72429119  0.70088618     0.39800
C3301       C  0.01441768  0.72039081  0.65661393     0.38900
C3302       C  0.92139123  0.67426875  0.71582257     0.35900
C3303       C  0.95653289  0.66479879  0.76521550     0.36500
C3304       C  0.91151868  0.58353083  0.68056453     0.39800
N3305       N  0.03235104  0.72896692  0.64240361    -0.38300
N3306       N  0.00507468  0.66197845  0.67793593    -0.39900
N3307       N  0.93415211  0.73488782  0.70610772    -0.37600
N3308       N  0.90194066  0.66450089  0.72599301    -0.40000
N3309       N  0.94076908  0.63460862  0.62800222    -0.39800
N3310       N  0.90310227  0.56708010  0.66343884    -0.37400
N3311       N  0.91826899  0.61948428  0.81624697    -0.38500
N3312       N  0.96630605  0.68108980  0.78245077    -0.40100
C3313       C  0.79852041  0.55998751  0.68643012    -0.05100
C3314       C  0.77444046  0.54161365  0.68114066     0.09100
C3315       C  0.76431689  0.52053845  0.70001430    -0.02400
C3316       C  0.77819256  0.51772696  0.72402766    -0.00700
C3317       C  0.80254265  0.53592938  0.72918487    -0.04300
C3318       C  0.81260298  0.55717097  0.71027432     0.02700
C3319       C  0.75929197  0.54414301  0.65583932     0.09500
C3320       C  0.73949612  0.50165234  0.69451166     0.35400
C3321       C  0.83770032  0.57579227  0.71422478     0.38900
C3322       C  0.75744827  0.53395206  0.62533377    -0.04700
C3323       C  0.73988509  0.53230874  0.60338340     0.02500
C3324       C  0.72407099  0.54096525  0.61182386    -0.04300
C3325       C  0.72719057  0.55274130  0.64169498    -0.00500
C3326       C  0.74473996  0.55427893  0.66354765    -0.03100
C3327       C  0.77326643  0.52456629  0.61697251     0.36200
C3328       C  0.71144666  0.56203534  0.65099172     0.39800
C3329       C  0.73814551  0.52166744  0.57215031     0.38900
C3330       C  0.74724177  0.56546006  0.69459359     0.35900
C3331       C  0.80885819  0.58165458  0.66698622     0.36500
C3332       C  0.76708267  0.49623490  0.74386495     0.39800
N3333       N  0.73683160  0.51315826  0.54726676    -0.38300
N3334       N  0.78596194  0.51714346  0.61039028    -0.39900
N3335       N  0.69895198  0.56950936  0.65844915    -0.37600
N3336       N  0.74928438  0.57438513  0.71935243    -0.40000
N3337       N  0.71971525  0.48665817  0.68990999    -0.39800
N3338       N  0.75817553  0.47906995  0.75962052    -0.37400
N3339       N  0.85768710  0.59086019  0.71693324    -0.38500
N3340       N  0.81713574  0.59895222  0.65148905    -0.40100
C3341       C  0.77911167  0.54914393  0.88120027    -0.05100
C3342       C  0.76281756  0.52890818  0.89936698     0.09100
C3343       C  0.76551856  0.50823706  0.90009312    -0.02400
C3344       C  0.78392129  0.50751210  0.88209197    -0.00700
C3345       C  0.80010078  0.52764984  0.86352891    -0.04300
C3346       C  0.79770425  0.54859268  0.86350502     0.02700
C3347       C  0.74328875  0.52956215  0.91875924     0.09500
C3348       C  0.74946927  0.48782089  0.91986140     0.35400
C3349       C  0.81380172  0.56937050  0.84427031     0.38900
C3350       C  0.71891931  0.51695249  0.90844065    -0.04700
C3351       C  0.70028540  0.51526189  0.92850652     0.02500
C3352       C  0.70599978  0.52687049  0.95860269    -0.04300
C3353       C  0.73057490  0.54105977  0.96774417    -0.00500
C3354       C  0.74904620  0.54194914  0.94826387    -0.03100
C3355       C  0.71301447  0.50534933  0.87736206     0.36200
C3356       C  0.73690873  0.55488417  0.49731160     0.39800
C3357       C  0.67519569  0.50044829  0.91897212     0.38900
C3358       C  0.77397351  0.55495011  0.95908265     0.35900
C3359       C  0.77656479  0.57050021  0.88050627     0.36500
C3360       C  0.78657104  0.48624794  0.88340810     0.39800
N3361       N  0.65514677  0.48855141  0.91152278    -0.38300
N3362       N  0.70828823  0.49616048  0.85249871    -0.39900
N3363       N  0.74196209  0.56601409  0.52075121    -0.37600
N3364       N  0.79386798  0.56523443  0.96768708    -0.40000
N3365       N  0.73660108  0.47165819  0.93577201    -0.39800
N3366       N  0.78865422  0.46925827  0.88463446    -0.37400
N3367       N  0.82666991  0.58594867  0.82896715    -0.38500
N3368       N  0.77457235  0.58755984  0.88003710    -0.40100
C3369       C  0.96145543  0.60505652  0.88605931    -0.05100
C3370       C  0.98138536  0.61533850  0.86482617     0.09100
C3371       C  0.97718420  0.61133110  0.83185123    -0.02400
C3372       C  0.95420641  0.59414641  0.82056106    -0.00700
C3373       C  0.93402527  0.58347362  0.84158594    -0.04300
C3374       C  0.93764313  0.59000310  0.87421053     0.02700
C3375       C  0.00707454  0.62723021  0.87652876     0.09500
C3376       C  0.99697763  0.62427641  0.80952067     0.35400
C3377       C  0.91716615  0.58020952  0.89573870     0.38900
C3378       C  0.02058319  0.61545138  0.87134655    -0.04700
C3379       C  0.04514781  0.62679406  0.87994048     0.02500
C3380       C  0.05605558  0.64904310  0.89669273    -0.04300
C3381       C  0.04273380  0.66110801  0.90141036    -0.00500
C3382       C  0.01858721  0.65058916  0.89027143    -0.03100
C3383       C  0.00903951  0.59127042  0.85769891     0.36200
C3384       C  0.05313807  0.68341579  0.91963714     0.39800
C3385       C  0.05912029  0.61512428  0.87231967     0.38900
C3386       C  0.00556322  0.66372168  0.89292448     0.35900
C3387       C  0.96553906  0.60920129  0.92007409     0.36500
C3388       C  0.95211890  0.58692435  0.78729059     0.39800
N3389       N  0.07024151  0.60583921  0.86620159    -0.38300
N3390       N  0.99984860  0.57201841  0.84679682    -0.39900
N3391       N  0.06132017  0.70112134  0.93440741    -0.37600
N3392       N  0.99516086  0.67422128  0.89477193    -0.40000
N3393       N  0.01271959  0.63467116  0.79176379    -0.39800
N3394       N  0.95161343  0.58128698  0.76089187    -0.37400
N3395       N  0.90077336  0.57249310  0.91287844    -0.38500
N3396       N  0.96877695  0.61245260  0.94727054    -0.40100
C3397       C  0.74147852  0.21817926  0.89031087    -0.05100
C3398       C  0.76614139  0.22652479  0.88362079     0.09100
C3399       C  0.77199864  0.21542049  0.85860090    -0.02400
C3400       C  0.75346495  0.19618561  0.84067404    -0.00700
C3401       C  0.72878950  0.18739239  0.84801314    -0.04300
C3402       C  0.72298454  0.19854423  0.87302172     0.02700
C3403       C  0.78565313  0.24570564  0.90464623     0.09500
C3404       C  0.79716079  0.22375884  0.85136940     0.35400
C3405       C  0.69792250  0.18918114  0.88192736     0.38900
C3406       C  0.78877177  0.23977045  0.93610696    -0.04700
C3407       C  0.80559882  0.25773232  0.95696416     0.02500
C3408       C  0.81918175  0.28218893  0.94715480    -0.04300
C3409       C  0.81690227  0.28803568  0.91523319    -0.00500
C3410       C  0.80032564  0.26984310  0.89402557    -0.03100
C3411       C  0.77407099  0.21513016  0.94739913     0.36200
C3412       C  0.83069765  0.31292700  0.90464248     0.39800
C3413       C  0.80901063  0.25092382  0.98875789     0.38900
C3414       C  0.79781066  0.27610108  0.86155169     0.35900
C3415       C  0.73512629  0.22987129  0.91518207     0.36500
C3416       C  0.75981761  0.18601171  0.81388414     0.39800
N3417       N  0.81173129  0.24549103  0.01410937    -0.38300
N3418       N  0.76212240  0.19553667  0.95647309    -0.39900
N3419       N  0.84169659  0.33280608  0.89619624    -0.37600
N3420       N  0.79590630  0.28105600  0.83554859    -0.40000
N3421       N  0.81725782  0.23050279  0.84554181    -0.39800
N3422       N  0.76484702  0.17797030  0.79237688    -0.37400
N3423       N  0.67798140  0.18159925  0.88942344    -0.38500
N3424       N  0.73011946  0.23924472  0.93503206    -0.40100
C3425       C  0.78709210  0.24560472  0.65274143    -0.05100
C3426       C  0.76366024  0.22969228  0.64113243     0.09100
C3427       C  0.75801525  0.23089574  0.60884869    -0.02400
C3428       C  0.77556581  0.24857395  0.58845129    -0.00700
C3429       C  0.79915126  0.26443095  0.60001056    -0.04300
C3430       C  0.80489344  0.26259184  0.63219782     0.02700
C3431       C  0.74515442  0.21165411  0.66339106     0.09500
C3432       C  0.73424748  0.21370213  0.59664964     0.35400
C3433       C  0.82898230  0.27865149  0.64463530     0.38900
C3434       C  0.73048466  0.21790252  0.68151003    -0.04700
C3435       C  0.71547209  0.20236775  0.70582513     0.02500
C3436       C  0.71489592  0.18018436  0.71216159    -0.04300
C3437       C  0.72962788  0.17399500  0.69346640    -0.00500
C3438       C  0.74441182  0.18956123  0.66905788    -0.03100
C3439       C  0.73162011  0.24088909  0.67586056     0.36200
C3440       C  0.73041836  0.15203478  0.69965971     0.39800
C3441       C  0.70206169  0.21030826  0.72563463     0.38900
C3442       C  0.75953373  0.18322470  0.65020013     0.35900
C3443       C  0.79275891  0.24461567  0.68610596     0.36500
C3444       C  0.76943933  0.25006855  0.55550379     0.39800
N3445       N  0.69150065  0.21677406  0.74145593    -0.38300
N3446       N  0.73258969  0.25924525  0.67136447    -0.39900
N3447       N  0.73157149  0.13481878  0.70478602    -0.37600
N3448       N  0.77161505  0.17822714  0.63513266    -0.40000
N3449       N  0.71532370  0.19981759  0.58691652    -0.39800
N3450       N  0.76438373  0.25118340  0.52925967    -0.37400
N3451       N  0.84821655  0.29132877  0.65453323    -0.38500
N3452       N  0.79714288  0.24381771  0.71274673    -0.40100
C3453       C  0.84108787  0.42074732  0.70960954    -0.05100
C3454       C  0.85063925  0.42534659  0.67842658     0.09100
C3455       C  0.86055686  0.44895681  0.66592117    -0.02400
C3456       C  0.86128799  0.46791825  0.68456721    -0.00700
C3457       C  0.85192118  0.46352069  0.71609994    -0.04300
C3458       C  0.84165278  0.43954450  0.72832489     0.02700
C3459       C  0.85027269  0.40526312  0.65877004     0.09500
C3460       C  0.86996775  0.45367015  0.63361425     0.35400
C3461       C  0.83240276  0.43403727  0.76072884     0.38900
C3462       C  0.82915401  0.38871195  0.64215479    -0.04700
C3463       C  0.82900327  0.37038115  0.62290953     0.02500
C3464       C  0.85006062  0.36830023  0.61987042    -0.04300
C3465       C  0.87094141  0.38435350  0.63756438    -0.00500
C3466       C  0.87099837  0.40269775  0.65686214    -0.03100
C3467       C  0.80756086  0.39074204  0.64456088     0.36200
C3468       C  0.89277750  0.38281121  0.63500533     0.39800
C3469       C  0.80695406  0.35352000  0.60625530     0.38900
C3470       C  0.89252845  0.41924050  0.67460125     0.35900
C3471       C  0.83094490  0.39654443  0.72263805     0.36500
C3472       C  0.87124832  0.49181928  0.67079041     0.39800
N3473       N  0.78945361  0.34009846  0.59282090    -0.38300
N3474       N  0.79028217  0.39227051  0.64648415    -0.39900
N3475       N  0.91032738  0.38176135  0.63330515    -0.37600
N3476       N  0.90964561  0.43252100  0.68882294    -0.40000
N3477       N  0.87745537  0.45733918  0.60781943    -0.39800
N3478       N  0.87923720  0.51086215  0.65963018    -0.37400
N3479       N  0.82499306  0.42943816  0.78653319    -0.38500
N3480       N  0.82285704  0.37722427  0.73294969    -0.40100
C3481       C  0.87436076  0.44021455  0.86610384    -0.05100
C3482       C  0.86610887  0.44038788  0.89728097     0.09100
C3483       C  0.85872500  0.45710319  0.90562103    -0.02400
C3484       C  0.85850504  0.47290106  0.88240065    -0.00700
C3485       C  0.86493494  0.47147898  0.85044128    -0.04300
C3486       C  0.87388233  0.45578719  0.84268335     0.02700
C3487       C  0.86501167  0.42270772  0.92132954     0.09500
C3488       C  0.85127453  0.45791977  0.93811949     0.35400
C3489       C  0.88224668  0.45525389  0.81062827     0.38900
C3490       C  0.88579177  0.42762800  0.93877386    -0.04700
C3491       C  0.88513808  0.41043801  0.96043829     0.02500
C3492       C  0.86333222  0.38811927  0.96528918    -0.04300
C3493       C  0.84242692  0.38341975  0.94738790    -0.00500
C3494       C  0.84336618  0.40070645  0.92566772    -0.03100
C3495       C  0.90804417  0.45037877  0.93386688     0.36200
C3496       C  0.82015722  0.36030686  0.94947792     0.39800
C3497       C  0.90733569  0.41586343  0.97675906     0.38900
C3498       C  0.82216583  0.39563752  0.90696174     0.35900
C3499       C  0.88305579  0.42373423  0.85814069     0.36500
C3500       C  0.85282594  0.49142662  0.89177784     0.39800
N3501       N  0.92536539  0.42033488  0.98898492    -0.38300
N3502       N  0.92574220  0.46850736  0.92981257    -0.39900
N3503       N  0.80239297  0.34189140  0.95092435    -0.37600
N3504       N  0.80531178  0.39161919  0.89198140    -0.40000
N3505       N  0.84530510  0.45850872  0.96404561    -0.39800
N3506       N  0.84863645  0.50641765  0.89930477    -0.37400
N3507       N  0.88911625  0.45486950  0.78517112    -0.38500
N3508       N  0.89006817  0.41062987  0.85194433    -0.40100
C3509       C  0.93104667  0.28049467  0.97428967    -0.05100
C3510       C  0.91613771  0.25527612  0.97073016     0.09100
C3511       C  0.89482408  0.24303839  0.98932372    -0.02400
C3512       C  0.88772102  0.25623425  0.00964672    -0.00700
C3513       C  0.90178264  0.28165614  0.51121527    -0.04300
C3514       C  0.92405190  0.29352772  0.49447619     0.02700
C3515       C  0.92505479  0.24189466  0.95032529     0.09500
C3516       C  0.88015808  0.21694303  0.98729323     0.35400
C3517       C  0.93975380  0.31952706  0.49754460     0.38900
C3518       C  0.93752484  0.23165867  0.96515764    -0.04700
C3519       C  0.95180435  0.22492797  0.94697690     0.02500
C3520       C  0.95330215  0.22757202  0.91284843    -0.04300
C3521       C  0.93928906  0.23637545  0.89791350    -0.00500
C3522       C  0.92528621  0.24349221  0.91659808    -0.03100
C3523       C  0.93661191  0.22917443  0.99974314     0.36200
C3524       C  0.94059040  0.23990271  0.86364617     0.39800
C3525       C  0.96524202  0.21580065  0.96453084     0.38900
C3526       C  0.91173115  0.25335693  0.90128208     0.35900
C3527       C  0.95372524  0.29308964  0.95692075     0.36500
C3528       C  0.86584893  0.24373902  0.02845738     0.39800
N3529       N  0.97584043  0.20886295  0.97938178    -0.38300
N3530       N  0.93578500  0.22709682  0.52721557    -0.39900
N3531       N  0.94172764  0.24288387  0.83629893    -0.37600
N3532       N  0.90086990  0.26121639  0.88911315    -0.40000
N3533       N  0.86851451  0.19608577  0.98581738    -0.39800
N3534       N  0.84857478  0.23371709  0.04387186    -0.37400
N3535       N  0.95236449  0.34022481  0.49987262    -0.38500
N3536       N  0.97172650  0.30301254  0.94293187    -0.40100
C3537       C  0.05949095  0.19675695  0.72828017    -0.05100
C3538       C  0.08130543  0.19906554  0.74009334     0.09100
C3539       C  0.08524181  0.20043944  0.77326299    -0.02400
C3540       C  0.06723287  0.19840949  0.79460611    -0.00700
C3541       C  0.04470228  0.19501529  0.78316448    -0.04300
C3542       C  0.04130111  0.19487297  0.74964901     0.02700
C3543       C  0.09989736  0.19867952  0.71824456     0.09500
C3544       C  0.10798935  0.20369748  0.78551020     0.35400
C3545       C  0.01882341  0.19184330  0.73696776     0.38900
C3546       C  0.12047800  0.22038960  0.70875908    -0.04700
C3547       C  0.13946786  0.21996458  0.69171567     0.02500
C3548       C  0.13834047  0.19760679  0.68429777    -0.04300
C3549       C  0.11743459  0.17581220  0.69414198    -0.00500
C3550       C  0.09837434  0.17645555  0.71054675    -0.03100
C3551       C  0.12213589  0.24328483  0.71689215     0.36200
C3552       C  0.11547587  0.15244360  0.68846579     0.39800
C3553       C  0.15982618  0.24276189  0.68144945     0.38900
C3554       C  0.07714173  0.15408387  0.72015966     0.35900
C3555       C  0.05568450  0.19591279  0.69407029     0.36500
C3556       C  0.07271076  0.20087105  0.82851488     0.39800
N3557       N  0.17602629  0.26102176  0.67336870    -0.38300
N3558       N  0.12343797  0.26152832  0.72344479    -0.39900
N3559       N  0.11377476  0.13374845  0.68396582    -0.37600
N3560       N  0.06014803  0.13629225  0.72778142    -0.40000
N3561       N  0.12615276  0.20635045  0.79516819    -0.39800
N3562       N  0.07774462  0.20340377  0.85533566    -0.37400
N3563       N  0.00090795  0.18946138  0.72673499    -0.38500
N3564       N  0.05272758  0.19525748  0.66673015    -0.40100
C3565       C  0.08061430  0.20201296  0.98654202    -0.05100
C3566       C  0.09026335  0.18674450  0.98106348     0.09100
C3567       C  0.08355690  0.17195220  0.95362854    -0.02400
C3568       C  0.06789282  0.17315695  0.93089238    -0.00700
C3569       C  0.05876675  0.18909046  0.93579112    -0.04300
C3570       C  0.06483502  0.20313864  0.96413933     0.02700
C3571       C  0.10788331  0.18679590  0.50430362     0.09500
C3572       C  0.09265102  0.15537772  0.94904000     0.35400
C3573       C  0.05401641  0.21796724  0.97123672     0.38900
C3574       C  0.09986097  0.16963188  0.52909608    -0.04700
C3575       C  0.11619405  0.17117877  0.55281823     0.02500
C3576       C  0.14064179  0.18983001  0.55161658    -0.04300
C3577       C  0.14863841  0.20699097  0.52673390    -0.00500
C3578       C  0.13224607  0.20544728  0.50310003    -0.03100
C3579       C  0.07464407  0.15083976  0.53062418     0.36200
C3580       C  0.17372911  0.22608311  0.52516905     0.39800
C3581       C  0.10756756  0.15430903  0.57934340     0.38900
C3582       C  0.14025324  0.22339695  0.97789820     0.35900
C3583       C  0.08669860  0.21629278  0.01566612     0.36500
C3584       C  0.06164000  0.15834499  0.90229383     0.39800
N3585       N  0.10070797  0.14098176  0.60061603    -0.38300
N3586       N  0.05452287  0.13587110  0.53181039    -0.39900
N3587       N  0.19368868  0.24141056  0.52369205    -0.37600
N3588       N  0.14649541  0.23768631  0.95779287    -0.40000
N3589       N  0.09974675  0.14200858  0.94554284    -0.39800
N3590       N  0.05671150  0.14654518  0.87946342    -0.37400
N3591       N  0.04536640  0.22973712  0.97697591    -0.38500
N3592       N  0.09160409  0.22764586  0.53887665    -0.40100
C3593       C  0.94032202  0.11284320  0.99093210    -0.05100
C3594       C  0.92005636  0.11578292  0.99694525     0.09100
C3595       C  0.91902653  0.13505918  0.98187474    -0.02400
C3596       C  0.93647710  0.14937110  0.95883252    -0.00700
C3597       C  0.95754778  0.14769934  0.95458702    -0.04300
C3598       C  0.95940318  0.12933119  0.97095706     0.02700
C3599       C  0.89929549  0.09793979  0.51761474     0.09500
C3600       C  0.89978381  0.14004744  0.98965402     0.35400
C3601       C  0.98046188  0.12668265  0.96601135     0.38900
C3602       C  0.90287955  0.09541224  0.55037469    -0.04700
C3603       C  0.88390078  0.07758184  0.56910616     0.02500
C3604       C  0.86034128  0.06319710  0.55608033    -0.04300
C3605       C  0.85632496  0.06709042  0.52390926    -0.00500
C3606       C  0.87582288  0.08344462  0.00445668    -0.03100
C3607       C  0.92608148  0.11155076  0.56507394     0.36200
C3608       C  0.83213724  0.05418778  0.01042834     0.39800
C3609       C  0.88873886  0.07456637  0.60215865     0.38900
C3610       C  0.87179481  0.08504653  0.97065218     0.35900
C3611       C  0.94111844  0.09228819  0.00424644     0.36500
C3612       C  0.93084469  0.16315742  0.93659676     0.39800
N3613       N  0.89281040  0.07210622  0.62839180    -0.38300
N3614       N  0.94456839  0.12444724  0.57681625    -0.39900
N3615       N  0.81285582  0.04426690  0.99963297    -0.37600
N3616       N  0.86859639  0.08641809  0.94371271    -0.40000
N3617       N  0.88454663  0.14418083  0.99590144    -0.39800
N3618       N  0.92529726  0.17310397  0.91838536    -0.37400
N3619       N  0.99727877  0.12459289  0.96206089    -0.38500
N3620       N  0.94168292  0.07582618  0.51485309    -0.40100
C3621       C  0.89252675  0.11182190  0.79054101    -0.05100
C3622       C  0.89742726  0.10037561  0.76519965     0.09100
C3623       C  0.92119635  0.10510745  0.75990959    -0.02400
C3624       C  0.94031552  0.12226213  0.77884509    -0.00700
C3625       C  0.93564337  0.13443508  0.80374294    -0.04300
C3626       C  0.91157544  0.12874054  0.80992921     0.02700
C3627       C  0.87814185  0.08502268  0.74193372     0.09500
C3628       C  0.92597087  0.09266139  0.73432932     0.35400
C3629       C  0.90623693  0.13993475  0.83644652     0.38900
C3630       C  0.87607479  0.09545085  0.71334383    -0.04700
C3631       C  0.86033685  0.08073286  0.68906474     0.02500
C3632       C  0.84693604  0.05528286  0.69303488    -0.04300
C3633       C  0.84789032  0.04510038  0.72269895    -0.00500
C3634       C  0.86347148  0.06000101  0.74707884    -0.03100
C3635       C  0.89099279  0.12134578  0.70848496     0.36200
C3636       C  0.83267516  0.01935140  0.72839939     0.39800
C3637       C  0.85896928  0.09192458  0.65956751     0.38900
C3638       C  0.86487374  0.04959504  0.77721888     0.35900
C3639       C  0.86790483  0.10639952  0.79625717     0.36500
C3640       C  0.96491236  0.12821213  0.77145850     0.39800
N3641       N  0.85787634  0.10093526  0.63613829    -0.38300
N3642       N  0.90301344  0.14197148  0.70465342    -0.39900
N3643       N  0.82053460  0.99882431  0.73294328    -0.37600
N3644       N  0.86593262  0.04131586  0.80131740    -0.40000
N3645       N  0.92964254  0.08264673  0.71393920    -0.39800
N3646       N  0.98448972  0.13293172  0.76545549    -0.37400
N3647       N  0.90163741  0.14867080  0.85753204    -0.38500
N3648       N  0.84824009  0.10201469  0.80080413    -0.40100
C3649       C  0.01061689  0.41967379  0.66492253    -0.05100
C3650       C  0.00952147  0.41151087  0.63304113     0.09100
C3651       C  0.03004234  0.41182818  0.62025666    -0.02400
C3652       C  0.04998525  0.41718418  0.63982421    -0.00700
C3653       C  0.05244145  0.42762982  0.67079050    -0.04300
C3654       C  0.03235498  0.42867748  0.68324914     0.02700
C3655       C  0.98624620  0.39901269  0.61389505     0.09500
C3656       C  0.03048028  0.40616345  0.58668996     0.35400
C3657       C  0.03391536  0.43882607  0.71468283     0.38900
C3658       C  0.97594996  0.41188584  0.59955246    -0.04700
C3659       C  0.95523945  0.39975381  0.57945338     0.02500
C3660       C  0.94520436  0.37485185  0.57247741    -0.04300
C3661       C  0.95594404  0.36223168  0.58638351    -0.00500
C3662       C  0.97586545  0.37403048  0.60727031    -0.03100
C3663       C  0.98652184  0.43754518  0.60570399     0.36200
C3664       C  0.94593076  0.33657054  0.58017800     0.39800
C3665       C  0.94338604  0.41253351  0.56773790     0.38900
C3666       C  0.98569945  0.36025867  0.62226948     0.35900
C3667       C  0.98935188  0.41860228  0.67886973     0.36500
C3668       C  0.06732852  0.41047768  0.62818151     0.39800
N3669       N  0.93384568  0.42283686  0.55896218    -0.38300
N3670       N  0.99489663  0.45803021  0.61071573    -0.39900
N3671       N  0.93816189  0.31610411  0.57567805    -0.37600
N3672       N  0.99369600  0.34940400  0.63409907    -0.40000
N3673       N  0.03088020  0.40187972  0.55989774    -0.39800
N3674       N  0.08103473  0.40505364  0.61883319    -0.37400
N3675       N  0.03514710  0.44694008  0.73982507    -0.38500
N3676       N  0.97229602  0.41768343  0.68993129    -0.40100
C3677       C  0.07820161  0.30135384  0.79522930    -0.05100
C3678       C  0.07213757  0.31980712  0.79737964     0.09100
C3679       C  0.05666728  0.31866913  0.82244831    -0.02400
C3680       C  0.04573191  0.29830037  0.84302554    -0.00700
C3681       C  0.05118247  0.27946280  0.84004966    -0.04300
C3682       C  0.06852829  0.28192097  0.81718494     0.02700
C3683       C  0.08225757  0.34050924  0.77361936     0.09500
C3684       C  0.05169988  0.33831763  0.82675195     0.35400
C3685       C  0.07666722  0.26448649  0.81627731     0.38900
C3686       C  0.06699054  0.34297740  0.75116052    -0.04700
C3687       C  0.07610809  0.36361429  0.73108381     0.02500
C3688       C  0.10074227  0.38173206  0.73254486    -0.04300
C3689       C  0.11633952  0.37815546  0.75302515    -0.00500
C3690       C  0.10716079  0.35797871  0.77374033    -0.03100
C3691       C  0.04167657  0.32456651  0.74935249     0.36200
C3692       C  0.14193285  0.39577901  0.75355408     0.39800
C3693       C  0.05980507  0.36703395  0.71045726     0.38900
C3694       C  0.12325702  0.35581728  0.79627843     0.35900
C3695       C  0.09363551  0.30175827  0.76952262     0.36500
C3696       C  0.02819474  0.29626757  0.86663703     0.39800
N3697       N  0.04682178  0.36985064  0.69404936    -0.38300
N3698       N  0.02145502  0.30987734  0.74798549    -0.39900
N3699       N  0.16244073  0.40954383  0.75404951    -0.37600
N3700       N  0.13608242  0.35400392  0.81417972    -0.40000
N3701       N  0.04780460  0.35405507  0.83018366    -0.39800
N3702       N  0.01417406  0.29456277  0.88549929    -0.37400
N3703       N  0.08414754  0.25132738  0.81558195    -0.38500
N3704       N  0.10590443  0.30203692  0.74898591    -0.40100
C3705       C  0.21867600  0.46145192  0.79666809    -0.05100
C3706       C  0.21683290  0.46279655  0.82991764     0.09100
C3707       C  0.19843472  0.46635603  0.84292676    -0.02400
C3708       C  0.18193146  0.46872484  0.82261428    -0.00700
C3709       C  0.18399987  0.46794397  0.78895070    -0.04300
C3710       C  0.20254490  0.46400394  0.77630720     0.02700
C3711       C  0.23507361  0.46119063  0.85079346     0.09500
C3712       C  0.19698473  0.46821016  0.87727174     0.35400
C3713       C  0.20536809  0.46222725  0.74219888     0.38900
C3714       C  0.25768433  0.48199059  0.85635496    -0.04700
C3715       C  0.27572202  0.48038961  0.87386166     0.02500
C3716       C  0.27145103  0.45775256  0.88582035    -0.04300
C3717       C  0.24888632  0.43674555  0.87922657    -0.00500
C3718       C  0.23079005  0.43857149  0.86200956    -0.03100
C3719       C  0.26249473  0.50509174  0.84352070     0.36200
C3720       C  0.24377083  0.41325249  0.89083931     0.39800
C3721       C  0.29883222  0.50222046  0.87900679     0.38900
C3722       C  0.20764150  0.41713770  0.85564361     0.35900
C3723       C  0.23768328  0.45783523  0.78333008     0.36500
C3724       C  0.16357389  0.47293533  0.83656008     0.39800
N3725       N  0.31717473  0.51968276  0.88321798    -0.38300
N3726       N  0.26637547  0.52348571  0.83314357    -0.39900
N3727       N  0.23961300  0.39444543  0.89995554    -0.37600
N3728       N  0.18912293  0.40012455  0.85052410    -0.40000
N3729       N  0.19598491  0.46977815  0.90470605    -0.39800
N3730       N  0.14896937  0.47632812  0.84783154    -0.37400
N3731       N  0.20828263  0.46087796  0.71518716    -0.38500
N3732       N  0.25287943  0.45505164  0.77277101    -0.40100
C3733       C  0.22732866  0.48064790  0.59865672    -0.05100
C3734       C  0.22761831  0.45877585  0.59689943     0.09100
C3735       C  0.21278846  0.43947774  0.61722619    -0.02400
C3736       C  0.19701137  0.44171615  0.63872208    -0.00700
C3737       C  0.19594006  0.46343674  0.63993640    -0.04300
C3738       C  0.21147508  0.48299057  0.61982177     0.02700
C3739       C  0.24286368  0.45588872  0.57232212     0.09500
C3740       C  0.21357940  0.41716460  0.61558708     0.35400
C3741       C  0.21032704  0.50511868  0.61902385     0.38900
C3742       C  0.26705302  0.46281248  0.57926367    -0.04700
C3743       C  0.28223975  0.46268197  0.55496074     0.02500
C3744       C  0.27315273  0.45536545  0.52357066    -0.04300
C3745       C  0.24847046  0.44723777  0.51715308    -0.00500
C3746       C  0.23346499  0.44772444  0.54145280    -0.03100
C3747       C  0.27629526  0.47031368  0.61141990     0.36200
C3748       C  0.23859538  0.43928927  0.98524524     0.39800
C3749       C  0.30710787  0.46971339  0.56251484     0.38900
C3750       C  0.20844909  0.44045908  0.53456481     0.35900
C3751       C  0.24301402  0.50058012  0.57787570     0.36500
C3752       C  0.18192901  0.42148650  0.65940986     0.39800
N3753       N  0.32693967  0.47534790  0.56853270    -0.38300
N3754       N  0.28356543  0.47620272  0.63713222    -0.39900
N3755       N  0.23060009  0.43282885  0.95995128    -0.37600
N3756       N  0.18851677  0.43474174  0.52912318    -0.40000
N3757       N  0.21424512  0.39938854  0.61425300    -0.39800
N3758       N  0.16985815  0.40527539  0.67576183    -0.37400
N3759       N  0.20962584  0.52287083  0.61790454    -0.38500
N3760       N  0.25555542  0.51640600  0.56127868    -0.40100
C3761       C  0.12192844  0.52333806  0.57623388    -0.05100
C3762       C  0.13874913  0.54830851  0.57744442     0.09100
C3763       C  0.15867545  0.55701981  0.59828069    -0.02400
C3764       C  0.16121957  0.54107862  0.61905513    -0.00700
C3765       C  0.14367308  0.51601500  0.61929764    -0.04300
C3766       C  0.12422422  0.50723591  0.59719195     0.02700
C3767       C  0.13546031  0.56582189  0.55731957     0.09500
C3768       C  0.17654962  0.58261659  0.59839179     0.35400
C3769       C  0.10574650  0.48192498  0.59682713     0.38900
C3770       C  0.12381355  0.57783220  0.57009006    -0.04700
C3771       C  0.12264977  0.59602715  0.55234814     0.02500
C3772       C  0.13283292  0.60209491  0.52142545    -0.04300
C3773       C  0.14424609  0.58971556  0.50854735    -0.00500
C3774       C  0.14559505  0.57174749  0.52652463    -0.03100
C3775       C  0.11321947  0.57153953  0.60171871     0.36200
C3776       C  0.15413657  0.59493529  0.97646654     0.39800
C3777       C  0.11189075  0.60919403  0.56652548     0.38900
C3778       C  0.15753637  0.55934515  0.51346510     0.35900
C3779       C  0.10208947  0.51429896  0.55356375     0.36500
C3780       C  0.18206580  0.55080447  0.64014983     0.39800
N3781       N  0.10345799  0.61982930  0.57787756    -0.38300
N3782       N  0.10473983  0.56642009  0.62693335    -0.39900
N3783       N  0.16211772  0.59907178  0.95092366    -0.37600
N3784       N  0.16703069  0.54940195  0.50313818    -0.40000
N3785       N  0.19074985  0.60302764  0.59830435    -0.39800
N3786       N  0.19867708  0.55874535  0.65699744    -0.37400
N3787       N  0.09076927  0.46180691  0.59606152    -0.38500
N3788       N  0.08634464  0.50705366  0.53534520    -0.40100
C3789       C  0.14709631  0.55390248  0.81771486    -0.05100
C3790       C  0.12864368  0.55950723  0.81220608     0.09100
C3791       C  0.11337874  0.54967963  0.78538782    -0.02400
C3792       C  0.11591496  0.53348325  0.76485950    -0.00700
C3793       C  0.13346681  0.52672944  0.77140372    -0.04300
C3794       C  0.14958686  0.53764806  0.79738172     0.02700
C3795       C  0.12511148  0.57529995  0.83548072     0.09500
C3796       C  0.09498141  0.55614132  0.77914841     0.35400
C3797       C  0.16848989  0.53186965  0.80377156     0.38900
C3798       C  0.13817730  0.60062689  0.83210712    -0.04700
C3799       C  0.13741204  0.61561723  0.85637395     0.02500
C3800       C  0.12375611  0.60531511  0.88458953    -0.04300
C3801       C  0.10962579  0.57976816  0.88697724    -0.00500
C3802       C  0.11026103  0.56491057  0.86241686    -0.03100
C3803       C  0.15278175  0.61122153  0.80380156     0.36200
C3804       C  0.09530539  0.56851982  0.91529795     0.39800
C3805       C  0.15060081  0.64165943  0.85195162     0.38900
C3806       C  0.09611037  0.53878444  0.86515456     0.35900
C3807       C  0.16328816  0.56464153  0.84475896     0.36500
C3808       C  0.10121981  0.52458384  0.73623462     0.39800
N3809       N  0.16117329  0.66241510  0.84838501    -0.38300
N3810       N  0.16439822  0.61963438  0.78118923    -0.39900
N3811       N  0.08383926  0.55949677  0.93783859    -0.37600
N3812       N  0.08480443  0.51793927  0.86718610    -0.40000
N3813       N  0.08029925  0.56132448  0.77422940    -0.39800
N3814       N  0.08977048  0.51767928  0.71313864    -0.37400
N3815       N  0.18377499  0.52756707  0.80885263    -0.38500
N3816       N  0.17614851  0.57327050  0.86634015    -0.40100
loop_ 
_geom_bond_atom_site_label_1 
_geom_bond_atom_site_label_2 
_geom_bond_distance 
_geom_bond_site_symmetry_2 
_ccdc_geom_bond_type 
Fe1          O17   2.034       .  S
Fe1           O7   2.074       .  S
Fe1          O14   2.093       .  S
Fe1           O6   2.019       .  S
Fe1          O12   1.941       .  S
Fe2           O5   2.007       .  S
Fe2           O9   2.124       .  S
Fe2          O13   2.035       .  S
Fe2          O18   2.144       .  S
Fe2          O12   1.927       .  S
Fe3          O21   2.168       .  S
Fe3           O8   2.024       .  S
Fe3          O15   2.067       .  S
Fe3           O4   2.145       .  S
Fe3          O12   1.943       .  S
O4           C11   1.291       .  A
O5           C19   1.256       .  A
O6           C11   1.269       .  A
O7           C10   1.267       .  A
O8           C20   1.260       .  A
O9           C22   1.283       .  A
C10          O15   1.268       .  A
C10        C1885   1.487       .  S
C11        C1801   1.507       .  S
O13          C16   1.262       .  A
O14          C16   1.273       .  A
C16        C1829   1.495       .  S
O17          C22   1.268       .  A
O18          C20   1.284       .  A
C19          O21   1.288       .  A
C19        C1745   1.516       .  S
C20        C1780   1.497       .  S
C22        C1857   1.499       .  S
Fe23         O39   2.041       .  S
Fe23         O29   2.052       .  S
Fe23         O36   2.070   1_655  S
Fe23         O28   2.041   1_655  S
Fe23         O34   1.963   1_655  S
Fe24         O27   2.020   1_455  S
Fe24         O31   2.153   1_455  S
Fe24         O35   2.039       .  S
Fe24         O40   2.120       .  S
Fe24         O34   1.936       .  S
Fe25         O43   2.139       .  S
Fe25         O30   2.046   1_655  S
Fe25         O37   2.060       .  S
Fe25         O26   2.153   1_655  S
Fe25         O34   1.938   1_655  S
O26          C33   1.297       .  A
O27          C41   1.260       .  A
O28          C33   1.278       .  A
O29          C32   1.259       .  A
O30          C42   1.262       .  A
O31          C44   1.294       .  A
C32          O37   1.260       .  A
C32        C1717   1.483       .  S
C33        C1633   1.510       .  S
O35          C38   1.255       .  A
O36          C38   1.260       .  A
C38        C1661   1.482       .  S
O39          C44   1.274       .  A
O40          C42   1.278       .  A
C41          O43   1.287       .  A
C41        C1612   1.516       .  S
C42        C1773   1.497       .  S
C44        C1689   1.495       .  S
Fe45         O61   2.044       .  S
Fe45         O51   2.072   1_554  S
Fe45         O58   2.083       .  S
Fe45         O50   2.046   1_554  S
Fe45         O56   1.957       .  S
Fe46         O49   2.026       .  S
Fe46         O53   2.139       .  S
Fe46         O57   2.046       .  S
Fe46         O62   2.127       .  S
Fe46         O56   1.950       .  S
Fe47         O59   2.041       .  S
Fe47         O48   2.142       .  S
Fe47       O1973   2.137       .  S
Fe47       O1960   2.013       .  S
Fe47       O1964   1.952       .  S
O48          C55   1.289       .  A
O49          C63   1.261       .  A
O50        C1963   1.274       .  A
O51        C1962   1.266       .  A
O52       Fe1955   2.013   1_554  S
O52          C64   1.260       .  A
O53          C66   1.289       .  A
C54          O59   1.260       .  A
C54        O1959   1.266       .  A
C54        C1584   1.500       .  S
C55        O1958   1.274       .  A
C55        C1500   1.502       .  S
O56       Fe1955   1.952   1_554  S
O57          C60   1.260       .  A
O58          C60   1.265       .  A
C60        C1521   1.486       .  S
O61          C66   1.273       .  A
O62          C64   1.281       .  A
C63          O65   1.284       .  A
C63        C1752   1.498       .  S
C64        C1605   1.490       .  S
O65       Fe1955   2.137   1_554  S
C66        C1556   1.504       .  S
Fe67         O83   2.051       .  S
Fe67         O73   2.078       .  S
Fe67         O80   2.085       .  S
Fe67         O72   2.048       .  S
Fe67         O78   1.956       .  S
Fe68         O71   2.028       .  S
Fe68         O75   2.112       .  S
Fe68         O79   2.061       .  S
Fe68         O84   2.102       .  S
Fe68         O78   1.947       .  S
Fe69         O87   2.110       .  S
Fe69         O74   2.040       .  S
Fe69         O81   2.080       .  S
Fe69         O70   2.097       .  S
Fe69         O78   1.952       .  S
O70          C77   1.283       .  A
O71          C85   1.263       .  A
O72          C77   1.278       .  A
O73          C76   1.265       .  A
O74          C86   1.264       .  A
O75          C88   1.285       .  A
C76          O81   1.267       .  A
C76        C1549   1.513       .  S
C77        C1577   1.482       .  S
O79          C82   1.261       .  A
O80          C82   1.265       .  A
C82        C1437   1.496       .  S
O83          C88   1.278       .  A
O84          C86   1.278       .  A
C85          O87   1.281       .  A
C85        C1381   1.493       .  S
C86        C1465   1.494       .  S
C88        C1409   1.491       .  S
Fe89        O105   2.055       .  S
Fe89         O95   2.050       .  S
Fe89        O102   2.057       .  S
Fe89         O94   2.056       .  S
Fe89        O100   1.967       .  S
Fe90         O93   2.027       .  S
Fe90         O97   2.094       .  S
Fe90        O106   2.088       .  S
Fe90       O2009   2.061       .  S
Fe90        O100   1.966       .  S
Fe91        O109   2.096       .  S
Fe91         O96   2.041       .  S
Fe91        O103   2.074       .  S
Fe91         O92   2.086       .  S
Fe91        O100   1.974       .  S
O92          C99   1.279       .  A
O93         C107   1.263       .  A
O94          C99   1.275       .  A
O95          C98   1.262       .  A
O96        C2016   1.265       .  A
O97         C110   1.280       .  A
C98         O103   1.266       .  A
C98        C1353   1.497       .  S
C99        C3233   1.489       .  S
O101      Fe1998   2.061       .  S
O101        C104   1.263   1_556  A
O102       C2012   1.262       .  A
C104       O2010   1.262   1_554  A
C104       C1864   1.491       .  S
O105        C110   1.274       .  A
O106       C2016   1.275       .  A
C107        O109   1.275       .  A
C107       C1472   1.488       .  S
C108       O2004   1.265   1_554  A
C108       O2014   1.275   1_554  A
C108       C1297   1.483       .  S
C110       C1892   1.496       .  S
Fe111       O127   2.041   1_655  S
Fe111       O117   2.061       .  S
Fe111       O124   2.058   1_655  S
Fe111       O116   2.049       .  S
Fe111       O122   1.962       .  S
Fe112       O115   2.041       .  S
Fe112       O119   2.088       .  S
Fe112       O123   2.072       .  S
Fe112       O128   2.092       .  S
Fe112       O122   1.963   1_455  S
Fe113       O131   2.087       .  S
Fe113       O118   2.029       .  S
Fe113       O125   2.065       .  S
Fe113       O114   2.092       .  S
Fe113       O122   1.962       .  S
O114        C121   1.279       .  A
O115        C129   1.264       .  A
O116        C121   1.274       .  A
O117        C120   1.263       .  A
O118        C130   1.265       .  A
O119        C132   1.280       .  A
C120        O125   1.264       .  A
C120       C1220   1.496       .  S
C121       C1192   1.487       .  S
O123        C126   1.265       .  A
O124        C126   1.262       .  A
C126       C1269   1.495       .  S
O127        C132   1.274       .  A
O128        C130   1.277   1_455  A
C129        O131   1.273   1_455  A
C129       C1304   1.484       .  S
C130       C1388   1.486       .  S
C132       C1241   1.483       .  S
Fe133       O149   2.043       .  S
Fe133       O139   2.073       .  S
Fe133       O146   2.064       .  S
Fe133       O138   2.037       .  S
Fe133       O144   1.958       .  S
Fe134       O137   2.028       .  S
Fe134       O141   2.126       .  S
Fe134       O145   2.049       .  S
Fe134       O150   2.112       .  S
Fe134       O144   1.963       .  S
Fe135       O153   2.125       .  S
Fe135       O140   2.039       .  S
Fe135       O147   2.048       .  S
Fe135       O136   2.130       .  S
Fe135       O144   1.969       .  S
O136        C143   1.285       .  A
O137        C151   1.260       .  A
O138        C143   1.269       .  A
O139        C142   1.266       .  A
O140        C152   1.264       .  A
O141        C154   1.287       .  A
C142        O147   1.263       .  A
C142       C1101   1.494       .  S
C143       C1360   1.513       .  S
O145        C148   1.259       .  A
O146        C148   1.263       .  A
C148       C1332   1.483       .  S
O149        C154   1.272       .  A
O150        C152   1.278       .  A
C151        O153   1.279       .  A
C151       C1157   1.493       .  S
C152       C1129   1.487       .  S
C154       C1080   1.511       .  S
Fe155       O171   2.042       .  S
Fe155       O161   2.076       .  S
Fe155       O168   2.077   1_565  S
Fe155       O160   2.034   1_565  S
Fe155       O166   1.944       .  S
Fe156       O159   2.038       .  S
Fe156       O163   2.120       .  S
Fe156       O167   2.048   1_565  S
Fe156       O172   2.112   1_565  S
Fe156       O166   1.940       .  S
Fe157       O175   2.112       .  S
Fe157       O162   2.031   1_565  S
Fe157       O169   2.041       .  S
Fe157       O158   2.117   1_565  S
Fe157       O166   1.943       .  S
O158        C165   1.283       .  A
O159        C173   1.266       .  A
O160        C165   1.269       .  A
O161        C164   1.267       .  A
O162        C174   1.262       .  A
O163        C176   1.283       .  A
C164        O169   1.261       .  A
C164       C1248   1.471       .  S
C165       C1017   1.492       .  S
O167        C170   1.263       .  A
O168        C170   1.268       .  A
C170       C1045   1.484       .  S
O171        C176   1.270       .  A
O172        C174   1.277       .  A
C173        O175   1.278       .  A
C173       C1136   1.490       .  S
C174        C996   1.481       .  S
C176       C1276   1.506       .  S
Fe177       O193   2.039       .  S
Fe177       O183   2.096       .  S
Fe177       O190   2.083       .  S
Fe177      O2090   2.039       .  S
Fe177       O188   1.923       .  S
Fe178       O181   2.007       .  S
Fe178       O185   2.134       .  S
Fe178       O189   2.051       .  S
Fe178       O194   2.161       .  S
Fe178       O188   1.941       .  S
Fe179       O191   2.035       .  S
Fe179       O180   2.120       .  S
Fe179      O2105   2.152       .  S
Fe179      O2092   2.010       .  S
Fe179      O2096   1.914       .  S
O180        C187   1.281       .  A
O181        C195   1.260       .  A
O182      Fe2085   2.039       .  S
O182        C187   1.267       .  A
O183       C2094   1.274   1_554  A
O184      Fe2087   2.010       .  S
O184        C196   1.251       .  A
O185        C198   1.286       .  A
C186        O191   1.265       .  A
C186       O2091   1.274       .  A
C186        C905   1.478       .  S
C187        C933   1.503       .  S
O188      Fe2087   1.914       .  S
O189        C192   1.268       .  A
O190        C192   1.273       .  A
C192        C968   1.476       .  S
O193        C198   1.270       .  A
O194        C196   1.282       .  A
C195        O197   1.287       .  A
C195       C1164   1.490       .  S
C196        C989   1.505       .  S
O197      Fe2087   2.152       .  S
C198        C884   1.506       .  S
Fe199       O215   2.049   1_565  S
Fe199       O205   2.084       .  S
Fe199       O212   2.080   1_565  S
Fe199       O204   2.040       .  S
Fe199       O210   1.957       .  S
Fe200       O203   2.051       .  S
Fe200       O207   2.083       .  S
Fe200       O211   2.079       .  S
Fe200       O216   2.084       .  S
Fe200       O210   1.952   1_545  S
Fe201       O219   2.097       .  S
Fe201       O206   2.048       .  S
Fe201       O213   2.068       .  S
Fe201       O202   2.098       .  S
Fe201       O210   1.953       .  S
O202        C209   1.279       .  A
O203        C217   1.268       .  A
O204        C209   1.271       .  A
O205        C208   1.268       .  A
O206        C218   1.269       .  A
O207        C220   1.278       .  A
C208        O213   1.266       .  A
C208        C793   1.508       .  S
C209        C765   1.477       .  S
O211        C214   1.269       .  A
O212        C214   1.268       .  A
C214       C1696   1.506       .  S
O215        C220   1.274       .  A
O216        C218   1.275   1_545  A
C217        O219   1.276   1_545  A
C217        C821   1.499       .  S
C218        C856   1.488       .  S
C220       C1724   1.486       .  S
Fe221       O237   2.054       .  S
Fe221       O227   2.090       .  S
Fe221       O234   2.091       .  S
Fe221       O226   2.049       .  S
Fe221       O232   1.951       .  S
Fe222       O225   2.045       .  S
Fe222       O229   2.100       .  S
Fe222       O233   2.072       .  S
Fe222       O238   2.095       .  S
Fe222       O232   1.947       .  S
Fe223       O241   2.093       .  S
Fe223       O228   2.052       .  S
Fe223       O224   2.095       .  S
Fe223      O2143   2.074       .  S
Fe223       O232   1.951       .  S
O224        C231   1.278       .  A
O225        C239   1.269       .  A
O226        C231   1.272       .  A
O227       C2138   1.271       .  A
O228        C240   1.269       .  A
O229        C242   1.280       .  A
C230        O235   1.269       .  A
C230       O2135   1.271   1_554  A
C230       C1073   1.510       .  S
C231       C1108   1.478       .  S
O233        C236   1.268       .  A
O234        C236   1.270       .  A
O235      Fe2131   2.074   1_554  S
C236        C737   1.513       .  S
O237        C242   1.273       .  A
O238        C240   1.275       .  A
C239        O241   1.277       .  A
C239       C2757   1.494       .  S
C240        C688   1.503       .  S
C242       C2617   1.490       .  S
Fe243       O259   2.050       .  S
Fe243       O249   2.086       .  S
Fe243       O256   2.089       .  S
Fe243       O248   2.058       .  S
Fe243       O254   1.950       .  S
Fe244       O247   2.059       .  S
Fe244       O251   2.094       .  S
Fe244       O255   2.080       .  S
Fe244       O260   2.099       .  S
Fe244       O254   1.961       .  S
Fe245       O263   2.096       .  S
Fe245       O250   2.063       .  S
Fe245       O257   2.080       .  S
Fe245       O246   2.089       .  S
Fe245       O254   1.957       .  S
O246        C253   1.276       .  A
O247        C261   1.271       .  A
O248        C253   1.272       .  A
O249        C252   1.270       .  A
O250        C262   1.271       .  A
O251        C264   1.276       .  A
C252        O257   1.271       .  A
C252       C1493   1.501       .  S
C253       C1528   1.500       .  S
O255        C258   1.271       .  A
O256        C258   1.272       .  A
C258        C877   1.508       .  S
O259        C264   1.269       .  A
O260        C262   1.276       .  A
C261        O263   1.276       .  A
C261        C681   1.494       .  S
C262        C828   1.498       .  S
C264        C912   1.502       .  S
Fe265       O281   2.042       .  S
Fe265       O271   2.087       .  S
Fe265       O278   2.090       .  S
Fe265       O270   2.051       .  S
Fe265       O276   1.925       .  S
Fe266       O269   2.041       .  S
Fe266       O273   2.106       .  S
Fe266       O277   2.072       .  S
Fe266       O282   2.130       .  S
Fe266       O276   1.934       .  S
Fe267       O285   2.107       .  S
Fe267       O272   2.033       .  S
Fe267       O279   2.054       .  S
Fe267       O268   2.095       .  S
Fe267       O276   1.940       .  S
O268        C275   1.277       .  A
O269        C283   1.263       .  A
O270        C275   1.270       .  A
O271        C274   1.274       .  A
O272        C284   1.263       .  A
O273        C286   1.279       .  A
C274        O279   1.269       .  A
C274        C940   1.496       .  S
C275        C961   1.491       .  S
O277        C280   1.273       .  A
O278        C280   1.274       .  A
C280        C604   1.508       .  S
O281        C286   1.268       .  A
O282        C284   1.280       .  A
C283        O285   1.273       .  A
C283        C660   1.488       .  S
C284        C625   1.492       .  S
C286        C576   1.478       .  S
Fe287       O303   2.042       .  S
Fe287       O293   2.093       .  S
Fe287       O300   2.096       .  S
Fe287       O292   2.037       .  S
Fe287       O298   1.925       .  S
Fe288       O291   2.032       .  S
Fe288       O295   2.097       .  S
Fe288       O299   2.063       .  S
Fe288       O304   2.121       .  S
Fe288       O298   1.936       .  S
Fe289       O307   2.127       .  S
Fe289       O294   2.038       .  S
Fe289       O301   2.074       .  S
Fe289       O290   2.095       .  S
Fe289       O298   1.930       .  S
O290        C297   1.277       .  A
O291        C305   1.262       .  A
O292        C297   1.268       .  A
O293        C296   1.274       .  A
O294        C306   1.262       .  A
O295        C308   1.278       .  A
C296        O301   1.273       .  A
C296       C1640   1.516       .  S
C297       C1668   1.474       .  S
O299        C302   1.271       .  A
O300        C302   1.276       .  A
C302       C1024   1.491       .  S
O303        C308   1.269       .  A
O304        C306   1.276       .  A
C305        O307   1.279       .  A
C305        C632   1.493       .  S
C306        C548   1.495       .  S
C308       C1052   1.485       .  S
Fe309       O325   2.049       .  S
Fe309       O315   2.077       .  S
Fe309       O322   2.078       .  S
Fe309       O314   2.046       .  S
Fe309       O320   1.930       .  S
Fe310       O313   2.039       .  S
Fe310       O317   2.098       .  S
Fe310       O326   2.119       .  S
Fe310      O2229   2.075       .  S
Fe310       O320   1.935       .  S
Fe311       O329   2.106       .  S
Fe311       O316   2.039       .  S
Fe311       O323   2.071       .  S
Fe311       O312   2.090       .  S
Fe311       O320   1.941       .  S
O312        C319   1.277       .  A
O313        C327   1.263       .  A
O314        C319   1.271       .  A
O315        C318   1.270       .  A
O316       C2236   1.265       .  A
O317        C330   1.279       .  A
C318        O323   1.271       .  A
C318       C1808   1.500       .  S
C319       C3744   1.484       .  S
O321      Fe2218   2.076   1_554  S
O321        C324   1.272       .  A
O322       C2232   1.270       .  A
C324       O2230   1.270   1_554  A
C324        C513   1.505       .  S
O325        C330   1.272       .  A
O326       C2236   1.279       .  A
C327        O329   1.274       .  A
C327        C653   1.490       .  S
C328       O2224   1.265       .  A
C328       O2234   1.279       .  A
C328        C541   1.491   1_556  S
C330        C485   1.492       .  S
Fe331       O347   2.052       .  S
Fe331       O337   2.060       .  S
Fe331       O344   2.066       .  S
Fe331       O336   2.051       .  S
Fe331       O342   1.976       .  S
Fe332       O335   2.045       .  S
Fe332       O339   2.121       .  S
Fe332       O343   2.050       .  S
Fe332       O348   2.115       .  S
Fe332       O342   1.976       .  S
Fe333       O351   2.111       .  S
Fe333       O338   2.043       .  S
Fe333       O345   2.053       .  S
Fe333       O334   2.111       .  S
Fe333       O342   1.980       .  S
O334        C341   1.282       .  A
O335        C349   1.263       .  A
O336        C341   1.271       .  A
O337        C340   1.265       .  A
O338        C350   1.263       .  A
O339        C352   1.285       .  A
C340        O345   1.263       .  A
C340        C716   1.488       .  S
C341        C520   1.506       .  S
O343        C346   1.261       .  A
O344        C346   1.265       .  A
C346        C492   1.486       .  S
O347        C352   1.271       .  A
O348        C350   1.278       .  A
C349        O351   1.276       .  A
C349        C429   1.491       .  S
C350        C464   1.491       .  S
C352        C744   1.505       .  S
Fe353       O369   2.040       .  S
Fe353       O359   2.076       .  S
Fe353       O366   2.087       .  S
Fe353       O358   2.036       .  S
Fe353       O364   1.960       .  S
Fe354       O357   2.014   1_554  S
Fe354       O370   2.127       .  S
Fe354      O2269   2.123   1_554  S
Fe354      O2273   2.034   1_554  S
Fe354       O364   1.951       .  S
Fe355       O373   2.138       .  S
Fe355       O360   2.026       .  S
Fe355       O367   2.051       .  S
Fe355       O356   2.144       .  S
Fe355       O364   1.953       .  S
O356        C363   1.292       .  A
O357        C371   1.260   1_556  A
O358        C363   1.272       .  A
O359        C362   1.265       .  A
O360        C372   1.259       .  A
O361      Fe2262   2.123       .  S
O361        C374   1.285       .  A
C362        O367   1.260       .  A
C362       C1416   1.492       .  S
C363        C597   1.510       .  S
O365      Fe2262   2.034       .  S
O365        C368   1.260       .  A
O366       C2276   1.268   1_554  A
C368       O2274   1.268       .  A
C368        C569   1.498       .  S
O369       C2282   1.271   1_554  A
O370        C372   1.279       .  A
C371        O373   1.284       .  A
C371        C408   1.509       .  S
C372        C457   1.491       .  S
C374       O2277   1.271       .  A
C374       C1444   1.490       .  S
Fe375       O391   2.031       .  S
Fe375       O381   2.062       .  S
Fe375       O388   2.084       .  S
Fe375       O380   2.025       .  S
Fe375       O386   1.953       .  S
Fe376       O379   2.010       .  S
Fe376       O383   2.132       .  S
Fe376       O387   2.033       .  S
Fe376       O392   2.127       .  S
Fe376       O386   1.940       .  S
Fe377       O395   2.149       .  S
Fe377       O382   2.024       .  S
Fe377       O389   2.065       .  S
Fe377       O378   2.147       .  S
Fe377       O386   1.951       .  S
O378        C385   1.293       .  A
O379        C393   1.259       .  A
O380        C385   1.271       .  A
O381        C384   1.263       .  A
O382        C394   1.259       .  A
O383        C396   1.288       .  A
C384        O389   1.264       .  A
C384       C1185   1.489       .  S
C385        C800   1.510       .  S
O387        C390   1.257       .  A
O388        C390   1.267       .  A
C390        C772   1.493       .  S
O391        C396   1.270       .  A
O392        C394   1.280       .  A
C393        O395   1.286       .  A
C393        C401   1.513       .  S
C394        C436   1.489       .  S
C396       C1213   1.499       .  S
C397        C398   1.405       .  A
C397        C402   1.407       .  A
C397        C415   1.454       .  S
C398        C403   1.507       .  S
C398        C399   1.416       .  A
C399        C400   1.425       .  A
C399        C404   1.448       .  S
C400        C401   1.416       .  A
C400        C416   1.447       .  S
C401        C402   1.431       .  A
C402        C405   1.455       .  S
C403        C406   1.406       .  A
C403        C410   1.415       .  A
C404        N421   1.157       .  T
C405        N423   1.158       .  T
C406        C407   1.408       .  A
C406        C411   1.454       .  S
C407       C2316   1.429       .  A
C407        C413   1.454       .  S
C408        C409   1.418       .  A
C408       C2315   1.429   1_554  A
C409       C2318   1.424   1_554  A
C409        C412   1.449       .  S
C410       C2317   1.424       .  A
C410        C414   1.448       .  S
C411        N418   1.157       .  T
C412        N419   1.158       .  T
C413        N417   1.157       .  T
C414        N420   1.157       .  T
C415       N2332   1.157       .  T
C416        N422   1.157       .  T
N424       C2323   1.157   1_554  T
C425        C426   1.413       .  A
C425        C430   1.414       .  A
C425        C443   1.450       .  S
C426        C431   1.513       .  S
C426        C427   1.418       .  A
C427        C428   1.418       .  A
C427        C432   1.450       .  S
C428        C429   1.410       .  A
C428        C444   1.448       .  S
C429        C430   1.412       .  A
C430        C433   1.447       .  S
C431        C434   1.416       .  A
C431        C438   1.413       .  A
C432        N449   1.157       .  T
C433        N451   1.156       .  T
C434        C435   1.417       .  A
C434        C439   1.450       .  S
C435        C436   1.412       .  A
C435        C441   1.450       .  S
C436        C437   1.414       .  A
C437        C438   1.415       .  A
C437        C440   1.447       .  S
C438        C442   1.450       .  S
C439        N446   1.157       .  T
C440        N447   1.156       .  T
C441        N445   1.157       .  T
C442        N448   1.157       .  T
C443        N452   1.157       .  T
C444        N450   1.157       .  T
C453        C454   1.415       .  A
C453        C458   1.417       .  A
C453        C471   1.450       .  S
C454        C459   1.510       .  S
C454        C455   1.411       .  A
C455        C456   1.415       .  A
C455        C460   1.450       .  S
C456        C457   1.415       .  A
C456        C472   1.447       .  S
C457        C458   1.412       .  A
C458        C461   1.447       .  S
C459        C462   1.411       .  A
C459        C466   1.416       .  A
C460        N477   1.157       .  T
C461        N479   1.157       .  T
C462        C463   1.414       .  A
C462        C467   1.449       .  S
C463        C464   1.413       .  A
C463        C469   1.445       .  S
C464        C465   1.409       .  A
C465        C466   1.417       .  A
C465        C468   1.447       .  S
C466        C470   1.449       .  S
C467        N474   1.157       .  T
C468        N475   1.157       .  T
C469        N473   1.155       .  T
C470        N476   1.157       .  T
C471        N480   1.157       .  T
C472        N478   1.156       .  T
C481        C482   1.410       .  A
C481        C486   1.410       .  A
C481        C499   1.451       .  S
C482        C487   1.496       .  S
C482        C483   1.409       .  A
C483        C484   1.411       .  A
C483        C488   1.451       .  S
C484        C485   1.419       .  A
C484        C500   1.452       .  S
C485        C486   1.418       .  A
C486        C489   1.451       .  S
C487        C490   1.411       .  A
C487        C494   1.410       .  A
C488        N505   1.157       .  T
C489        N507   1.157       .  T
C490        C491   1.411       .  A
C490        C495   1.451       .  S
C491        C492   1.415       .  A
C491        C497   1.450       .  S
C492        C493   1.416       .  A
C493        C494   1.410       .  A
C493        C496   1.452       .  S
C494        C498   1.451       .  S
C495        N502   1.157       .  T
C496        N503   1.157       .  T
C497        N501   1.157       .  T
C498        N504   1.157       .  T
C499        N508   1.157       .  T
C500        N506   1.157       .  T
C509        C510   1.410       .  A
C509        C514   1.413       .  A
C509        C527   1.452       .  S
C510        C515   1.505       .  S
C510        C511   1.410       .  A
C511        C512   1.416       .  A
C511        C516   1.450       .  S
C512        C513   1.421       .  A
C512        C528   1.450       .  S
C513        C514   1.422       .  A
C514        C517   1.452       .  S
C515        C518   1.407       .  A
C515        C522   1.413       .  A
C516        N533   1.157       .  T
C517        N535   1.158       .  T
C518        C519   1.410       .  A
C518        C523   1.453       .  S
C519        C520   1.424       .  A
C519        C525   1.452       .  S
C520        C521   1.420       .  A
C521        C522   1.419       .  A
C521        C524   1.450       .  S
C522        C526   1.450       .  S
C523        N530   1.157       .  T
C524        N531   1.158       .  T
C525        N529   1.157       .  T
C526        N532   1.157       .  T
C527        N536   1.157       .  T
C528        N534   1.157       .  T
C537        C538   1.406       .  A
C537       C2450   1.406   1_554  A
C537       C2463   1.454   1_554  S
C538        C543   1.499       .  S
C538        C539   1.413       .  A
C539        C540   1.417       .  A
C539        C544   1.445       .  S
C540        C541   1.411       .  A
C540        C556   1.449       .  S
C541       C2450   1.422   1_554  A
C542       C2445   1.406       .  A
C542       C2449   1.422       .  A
C542        C545   1.452       .  S
C543        C546   1.413       .  A
C543        C550   1.407       .  A
C544        N561   1.156       .  T
C545        N563   1.158       .  T
C546        C547   1.419       .  A
C546        C551   1.448       .  S
C547        C548   1.415       .  A
C547        C553   1.449       .  S
C548        C549   1.423       .  A
C549        C550   1.405       .  A
C549        C552   1.454       .  S
C550        C554   1.454       .  S
C551        N558   1.157   1_554  T
C552        N559   1.157       .  T
C553        N557   1.157       .  T
C554        N560   1.157       .  T
C555       C2445   1.454       .  S
C555        N564   1.157       .  T
C556        N562   1.157       .  T
C565        C566   1.410       .  A
C565        C570   1.412       .  A
C565        C583   1.451       .  S
C566        C571   1.496       .  S
C566        C567   1.408       .  A
C567        C568   1.408       .  A
C567        C572   1.452       .  S
C568        C569   1.421       .  A
C568       C2492   1.452       .  S
C569        C570   1.421       .  A
C570        C573   1.451       .  S
C571        C574   1.411       .  A
C571        C578   1.413       .  A
C572        N589   1.157       .  T
C573        N591   1.158       .  T
C574        C575   1.409       .  A
C574        C579   1.451       .  S
C575        C576   1.413       .  A
C575        C581   1.450       .  S
C576        C577   1.410       .  A
C577        C578   1.410       .  A
C577        C580   1.451       .  S
C578        C582   1.451       .  S
C579        N586   1.157       .  T
C580        N587   1.157       .  T
C581        N585   1.157       .  T
C582        N588   1.157       .  T
C583        N592   1.157       .  T
C584       C2476   1.452       .  S
C584        N590   1.157   1_556  T
C593        C594   1.405       .  A
C593        C598   1.410       .  A
C593        C611   1.454       .  S
C594        C599   1.506       .  S
C594        C595   1.413       .  A
C595        C596   1.421       .  A
C595        C600   1.449       .  S
C596        C597   1.418       .  A
C596        C612   1.448       .  S
C597        C598   1.427       .  A
C598        C601   1.450       .  S
C599        C602   1.410       .  A
C599        C606   1.410       .  A
C600        N617   1.157       .  T
C601        N619   1.156       .  T
C602        C603   1.413       .  A
C602        C607   1.452       .  S
C603        C604   1.421       .  A
C603        C609   1.450       .  S
C604        C605   1.423       .  A
C605        C606   1.418       .  A
C605        C608   1.450       .  S
C606        C610   1.450       .  S
C607        N614   1.157       .  T
C608        N615   1.157       .  T
C609        N613   1.157       .  T
C610        N616   1.157       .  T
C611        N620   1.157       .  T
C612        N618   1.157       .  T
C621        C622   1.413       .  A
C621        C626   1.417       .  A
C621        C639   1.445       .  S
C622        C627   1.500       .  S
C622        C623   1.406       .  A
C623        C624   1.408       .  A
C623        C628   1.454       .  S
C624        C625   1.423       .  A
C624        C640   1.452       .  S
C625        C626   1.411       .  A
C626        C629   1.449       .  S
C627        C630   1.408       .  A
C627        C634   1.414       .  A
C628        N645   1.157       .  T
C629        N647   1.157       .  T
C630        C631   1.406       .  A
C630        C635   1.454       .  S
C631        C632   1.422       .  A
C631        C637   1.453       .  S
C632        C633   1.413       .  A
C633        C634   1.419       .  A
C633        C636   1.449       .  S
C634        C638   1.448       .  S
C635        N642   1.157       .  T
C636        N643   1.157       .  T
C637        N641   1.158       .  T
C638        N644   1.157       .  T
C639        N648   1.156       .  T
C640        N646   1.158       .  T
C649        C650   1.411       .  A
C649        C654   1.416       .  A
C649        C667   1.448       .  S
C650        C655   1.493       .  S
C650        C651   1.406       .  A
C651        C652   1.404       .  A
C651        C656   1.454       .  S
C652        C653   1.422       .  A
C652        C668   1.453       .  S
C653        C654   1.414       .  A
C654        C657   1.449       .  S
C655        C658   1.406       .  A
C655        C662   1.411       .  A
C656        N673   1.157       .  T
C657        N675   1.157       .  T
C658        C659   1.403       .  A
C658        C663   1.454       .  S
C659        C660   1.421       .  A
C659        C665   1.453       .  S
C660        C661   1.414       .  A
C661        C662   1.417       .  A
C661        C664   1.448       .  S
C662        C666   1.448       .  S
C663        N670   1.157       .  T
C664        N671   1.157       .  T
C665        N669   1.158       .  T
C666        N672   1.157       .  T
C667        N676   1.157       .  T
C668        N674   1.158       .  T
C677        C678   1.414       .  A
C677        C682   1.413       .  A
C677        C695   1.449       .  S
C678        C683   1.506   1_545  S
C678        C679   1.412       .  A
C679        C680   1.414       .  A
C679        C684   1.449       .  S
C680        C681   1.416       .  A
C680        C696   1.449       .  S
C681        C682   1.412       .  A
C682        C685   1.450       .  S
C683        C686   1.413       .  A
C683        C690   1.411       .  A
C684        N701   1.157   1_545  T
C685        N703   1.157       .  T
C686        C687   1.412       .  A
C686        C691   1.451       .  S
C687        C688   1.417       .  A
C687        C693   1.452       .  S
C688        C689   1.421       .  A
C689        C690   1.417       .  A
C689        C692   1.450       .  S
C690        C694   1.450       .  S
C691        N698   1.157       .  T
C692        N699   1.157       .  T
C693        N697   1.157       .  T
C694        N700   1.157       .  T
C695        N704   1.157       .  T
C696        N702   1.157       .  T
C705        C706   1.409       .  A
C705        C710   1.412       .  A
C705        C723   1.450       .  S
C706        C711   1.496       .  S
C706        C707   1.410       .  A
C707        C708   1.411       .  A
C707        C712   1.451       .  S
C708        C709   1.417       .  A
C708       C2632   1.451   1_554  S
C709       C2150   1.490   1_554  S
C709        C710   1.417       .  A
C710        C713   1.451       .  S
C711        C714   1.410       .  A
C711        C718   1.410       .  A
C712        N729   1.157       .  T
C713        N731   1.157       .  T
C714        C715   1.410       .  A
C714        C719   1.451       .  S
C715        C716   1.418       .  A
C715        C721   1.452       .  S
C716        C717   1.416       .  A
C717        C718   1.411       .  A
C717        C720   1.451       .  S
C718        C722   1.450       .  S
C719        N726   1.157       .  T
C720        N727   1.157       .  T
C721        N725   1.158       .  T
C722        N728   1.157       .  T
C723        N732   1.157       .  T
C724       C2616   1.451       .  S
C724        N730   1.157       .  T
C733        C734   1.409       .  A
C733        C738   1.417       .  A
C733        C751   1.450       .  S
C734        C739   1.508       .  S
C734        C735   1.410       .  A
C735        C736   1.417       .  A
C735        C740   1.451       .  S
C736        C737   1.424       .  A
C736        C752   1.451       .  S
C737        C738   1.424       .  A
C738        C741   1.451       .  S
C739        C742   1.413       .  A
C739        C746   1.408       .  A
C740        N757   1.157       .  T
C741        N759   1.158       .  T
C742        C743   1.419       .  A
C742        C747   1.449       .  S
C743        C744   1.417       .  A
C743        C749   1.450       .  S
C744        C745   1.424       .  A
C745        C746   1.413       .  A
C745        C748   1.452       .  S
C746        C750   1.452       .  S
C747        N754   1.157       .  T
C748        N755   1.157       .  T
C749        N753   1.157       .  T
C750        N756   1.157       .  T
C751        N760   1.157       .  T
C752        N758   1.157       .  T
C761        C762   1.410   1_554  A
C761        C766   1.407       .  A
C761        C779   1.452       .  S
C762       C2675   1.486       .  S
C762        C763   1.407       .  A
C763        C764   1.407   1_556  A
C763       C2676   1.451       .  S
C764        C765   1.414       .  A
C764        C780   1.449       .  S
C765        C766   1.412       .  A
C766        C769   1.451       .  S
C767       C2670   1.487       .  S
C767        C770   1.405       .  A
C767        C774   1.405       .  A
C768       C2671   1.451       .  S
C768        N785   1.157       .  T
C769        N787   1.157       .  T
C770        C771   1.408       .  A
C770        C775   1.452       .  S
C771        C772   1.422       .  A
C771        C777   1.451       .  S
C772        C773   1.420       .  A
C773        C774   1.408       .  A
C773        C776   1.448       .  S
C774       C2686   1.453       .  S
C775        N782   1.157       .  T
C776        N783   1.156       .  T
C777        N781   1.157       .  T
C778       C2682   1.452       .  S
C778        N784   1.157   1_556  T
C779        N788   1.157       .  T
C780        N786   1.156       .  T
C789        C790   1.411       .  A
C789        C794   1.414       .  A
C789        C807   1.452       .  S
C790        C795   1.505       .  S
C790        C791   1.408       .  A
C791        C792   1.416       .  A
C791        C796   1.451       .  S
C792        C793   1.424       .  A
C792        C808   1.451       .  S
C793        C794   1.422       .  A
C794        C797   1.451       .  S
C795        C798   1.404       .  A
C795        C802   1.413       .  A
C796        N813   1.157       .  T
C797        N815   1.158       .  T
C798        C799   1.408       .  A
C798        C803   1.454       .  S
C799        C800   1.428       .  A
C799        C805   1.451       .  S
C800        C801   1.420       .  A
C801        C802   1.421       .  A
C801        C804   1.449       .  S
C802        C806   1.449       .  S
C803        N810   1.157       .  T
C804        N811   1.157       .  T
C805        N809   1.156       .  T
C806        N812   1.157       .  T
C807        N816   1.157       .  T
C808        N814   1.157       .  T
C817        C818   1.412       .  A
C817        C822   1.417   1_545  A
C817        C835   1.450   1_545  S
C818        C823   1.508       .  S
C818        C819   1.413       .  A
C819        C820   1.413       .  A
C819        C824   1.450       .  S
C820        C821   1.415       .  A
C820        C836   1.452       .  S
C821        C822   1.419   1_545  A
C822        C825   1.449       .  S
C823        C826   1.412       .  A
C823        C830   1.413       .  A
C824        N841   1.157       .  T
C825        N843   1.157       .  T
C826        C827   1.417       .  A
C826        C831   1.449       .  S
C827        C828   1.417       .  A
C827        C833   1.449       .  S
C828        C829   1.411       .  A
C829        C830   1.413       .  A
C829        C832   1.449       .  S
C830        C834   1.449       .  S
C831        N838   1.157   1_545  T
C832        N839   1.157       .  T
C833        N837   1.157       .  T
C834        N840   1.157       .  T
C835        N844   1.157       .  T
C836        N842   1.158       .  T
C845        C846   1.414       .  A
C845        C850   1.411       .  A
C845        C863   1.451       .  S
C846        C851   1.502       .  S
C846        C847   1.411       .  A
C847       C2756   1.414       .  A
C847       C2760   1.451   1_554  S
C848       C2755   1.414       .  A
C848       C2757   1.420       .  A
C848        C864   1.450       .  S
C849       C2147   1.494   1_554  S
C849        C850   1.415       .  A
C849       C2756   1.420       .  A
C850        C853   1.452       .  S
C851        C854   1.414       .  A
C851        C858   1.411       .  A
C852       C2755   1.451       .  S
C852        N869   1.157   1_565  T
C853        N871   1.158       .  T
C854        C855   1.411       .  A
C854       C2767   1.450   1_554  S
C855        C856   1.413       .  A
C855        C861   1.452       .  S
C856        C857   1.418       .  A
C857        C858   1.412       .  A
C857        C860   1.451   1_565  S
C858        C862   1.451       .  S
C859       C2762   1.450       .  S
C859        N866   1.157       .  T
C860        N867   1.157       .  T
C861        N865   1.158       .  T
C862        N868   1.157   1_565  T
C863        N872   1.157       .  T
C864        N870   1.157       .  T
C873        C874   1.409       .  A
C873        C878   1.415       .  A
C873        C891   1.451       .  S
C874        C879   1.509       .  S
C874        C875   1.413       .  A
C875        C876   1.420       .  A
C875        C880   1.450       .  S
C876        C877   1.418       .  A
C876        C892   1.450       .  S
C877        C878   1.422       .  A
C878        C881   1.450       .  S
C879        C882   1.410       .  A
C879        C886   1.413       .  A
C880        N897   1.157       .  T
C881        N899   1.157       .  T
C882        C883   1.413       .  A
C882        C887   1.451       .  S
C883        C884   1.422       .  A
C883        C889   1.452       .  S
C884        C885   1.419       .  A
C885        C886   1.419       .  A
C885        C888   1.450       .  S
C886        C890   1.449       .  S
C887        N894   1.157       .  T
C888        N895   1.158       .  T
C889        N893   1.157       .  T
C890        N896   1.157       .  T
C891        N900   1.157       .  T
C892        N898   1.157       .  T
C901        C902   1.412       .  A
C901        C906   1.412       .  A
C901        C919   1.449       .  S
C902        C907   1.492       .  S
C902        C903   1.409       .  A
C903        C904   1.405       .  A
C903        C908   1.453       .  S
C904        C905   1.415       .  A
C904        C920   1.453       .  S
C905        C906   1.412       .  A
C906        C909   1.450       .  S
C907        C910   1.408       .  A
C907        C914   1.406       .  A
C908        N925   1.157       .  T
C909       N2835   1.157       .  T
C910        C911   1.411       .  A
C910        C915   1.452       .  S
C911        C912   1.423       .  A
C911        C917   1.451       .  S
C912        C913   1.425       .  A
C913        C914   1.409       .  A
C913        C916   1.452       .  S
C914        C918   1.452       .  S
C915        N922   1.157       .  T
C916        N923   1.158       .  T
C917        N921   1.158       .  T
C918        N924   1.157       .  T
C919        N928   1.157       .  T
C920        N926   1.157       .  T
N927       C2817   1.157       .  T
C929        C930   1.407       .  A
C929        C934   1.410       .  A
C929        C947   1.452       .  S
C930        C935   1.496       .  S
C930        C931   1.409       .  A
C931        C932   1.414       .  A
C931        C936   1.452       .  S
C932        C933   1.420       .  A
C932        C948   1.446       .  S
C933        C934   1.423       .  A
C934        C937   1.452       .  S
C935        C938   1.407       .  A
C935        C942   1.410       .  A
C936        N953   1.157       .  T
C937        N955   1.157       .  T
C938        C939   1.408       .  A
C938        C943   1.452       .  S
C939        C940   1.421       .  A
C939        C945   1.450       .  S
C940        C941   1.419       .  A
C941        C942   1.413       .  A
C941        C944   1.450       .  S
C942        C946   1.451       .  S
C943        N950   1.157       .  T
C944        N951   1.157       .  T
C945        N949   1.156       .  T
C946        N952   1.157       .  T
C947        N956   1.157       .  T
C948        N954   1.156       .  T
C957        C958   1.408       .  A
C957        C962   1.408       .  A
C957        C975   1.452       .  S
C958        C963   1.490       .  S
C958        C959   1.407       .  A
C959        C960   1.410       .  A
C959        C964   1.451       .  S
C960        C961   1.420       .  A
C960        C976   1.452       .  S
C961        C962   1.420       .  A
C962        C965   1.451       .  S
C963        C966   1.410       .  A
C963        C970   1.410       .  A
C964        N981   1.157       .  T
C965        N983   1.157       .  T
C966        C967   1.407       .  A
C966        C971   1.451       .  S
C967        C968   1.413       .  A
C967        C973   1.452       .  S
C968        C969   1.412       .  A
C969        C970   1.409       .  A
C969        C972   1.450       .  S
C970        C974   1.450       .  S
C971        N978   1.157       .  T
C972        N979   1.157       .  T
C973        N977   1.157       .  T
C974        N980   1.157       .  T
C975        N984   1.157       .  T
C976        N982   1.158       .  T
C985        C986   1.408       .  A
C985        C990   1.402       .  A
C985       C1003   1.453       .  S
C986        C991   1.511       .  S
C986        C987   1.422       .  A
C987       C2896   1.425       .  A
C987       C2900   1.448       .  S
C988        C989   1.412       .  A
C988       C2895   1.425   1_554  A
C988       C1004   1.447       .  S
C989       C2898   1.423   1_554  A
C990       C2897   1.423       .  A
C990        C993   1.454       .  S
C991        C994   1.420       .  A
C991        C998   1.417       .  A
C992       C2895   1.448   1_554  S
C992       N1009   1.157       .  T
C993       N1011   1.158       .  T
C994        C995   1.410       .  A
C994        C999   1.451       .  S
C995        C996   1.404       .  A
C995       C1001   1.449       .  S
C996        C997   1.411       .  A
C997        C998   1.415       .  A
C997       C1000   1.450       .  S
C998       C1002   1.449       .  S
C999       N1006   1.157       .  T
C1000      N1007   1.157       .  T
C1001      N1005   1.157   1_545  T
C1002      N1008   1.157       .  T
C1003      N1012   1.157       .  T
C1004      N1010   1.157       .  T
C1013      C1014   1.408       .  A
C1013      C1018   1.407       .  A
C1013      C2939   1.452       .  S
C1014      C2927   1.497       .  S
C1014      C1015   1.412       .  A
C1015      C1016   1.414       .  A
C1015      C1020   1.450       .  S
C1016      C1017   1.416       .  A
C1016      C1032   1.450       .  S
C1017      C1018   1.419       .  A
C1018      C1021   1.453       .  S
C1019      C2922   1.497   1_554  S
C1019      C1022   1.408       .  A
C1019      C2934   1.412       .  A
C1020      N1037   1.157       .  T
C1021      N1039   1.157       .  T
C1022      C1023   1.409       .  A
C1022      C1027   1.452       .  S
C1023      C1024   1.417       .  A
C1023      C1029   1.449       .  S
C1024      C1025   1.414       .  A
C1025      C2934   1.414       .  A
C1025      C1028   1.450       .  S
C1026      C2927   1.412       .  A
C1026      C2933   1.414       .  A
C1026      C1030   1.450       .  S
C1027      N1034   1.157       .  T
C1028      N2943   1.157   1_554  T
C1029      N1033   1.156       .  T
C1030      N1036   1.157       .  T
C1031      C2921   1.452       .  S
C1031      N1040   1.157       .  T
C1032      N1038   1.157       .  T
N1035      C2936   1.157       .  T
C1041      C1042   1.409       .  A
C1041      C1046   1.410       .  A
C1041      C1059   1.451       .  S
C1042      C1047   1.489       .  S
C1042      C1043   1.408       .  A
C1043      C1044   1.406       .  A
C1043      C1048   1.452       .  S
C1044      C1045   1.417       .  A
C1044      C1060   1.452       .  S
C1045      C1046   1.417       .  A
C1046      C1049   1.451       .  S
C1047      C1050   1.408       .  A
C1047      C1054   1.409       .  A
C1048      N1065   1.157       .  T
C1049      N1067   1.157       .  T
C1050      C1051   1.409       .  A
C1050      C1055   1.451       .  S
C1051      C1052   1.417       .  A
C1051      C1057   1.451       .  S
C1052      C1053   1.418       .  A
C1053      C1054   1.407       .  A
C1053      C1056   1.452       .  S
C1054      C1058   1.452       .  S
C1055      N1062   1.157       .  T
C1056      N1063   1.158       .  T
C1057      N1061   1.157       .  T
C1058      N1064   1.157       .  T
C1059      N1068   1.157       .  T
C1060      N1066   1.157       .  T
C1069      C1070   1.410       .  A
C1069      C1074   1.418       .  A
C1069      C1087   1.450       .  S
C1070      C1075   1.510       .  S
C1070      C1071   1.412       .  A
C1071      C1072   1.415       .  A
C1071      C1076   1.451       .  S
C1072      C1073   1.420       .  A
C1072      C1088   1.451       .  S
C1073      C1074   1.423       .  A
C1074      C1077   1.451       .  S
C1075      C1078   1.413       .  A
C1075      C1082   1.407       .  A
C1076      N1093   1.157       .  T
C1077      N1095   1.157   1_554  T
C1078      C1079   1.421       .  A
C1078      C1083   1.449       .  S
C1079      C1080   1.421       .  A
C1079      C1085   1.450       .  S
C1080      C1081   1.427       .  A
C1081      C1082   1.411       .  A
C1081      C1084   1.453       .  S
C1082      C1086   1.453       .  S
C1083      N1090   1.157       .  T
C1084      N1091   1.157       .  T
C1085      N1089   1.158       .  T
C1086      N1092   1.157       .  T
C1087      N1096   1.157       .  T
C1088      N3002   1.157       .  T
N1094      C2996   1.157       .  T
C1097      C1098   1.408       .  A
C1097      C1102   1.411       .  A
C1097      C1115   1.451       .  S
C1098      C1103   1.493       .  S
C1098      C1099   1.408       .  A
C1099      C1100   1.410       .  A
C1099      C1104   1.452       .  S
C1100      C1101   1.421       .  A
C1100      C1116   1.451       .  S
C1101      C1102   1.419       .  A
C1102      C1105   1.451       .  S
C1103      C1106   1.411       .  A
C1103      C1110   1.410       .  A
C1104      N1121   1.157       .  T
C1105      N1123   1.157       .  T
C1106      C1107   1.408       .  A
C1106      C1111   1.452       .  S
C1107      C1108   1.412       .  A
C1107      C1113   1.450       .  S
C1108      C1109   1.413       .  A
C1109      C1110   1.410       .  A
C1109      C1112   1.452       .  S
C1110      C1114   1.450       .  S
C1111      N1118   1.157       .  T
C1112      N1119   1.157       .  T
C1113      N1117   1.157       .  T
C1114      N1120   1.157       .  T
C1115      N1124   1.157       .  T
C1116      N1122   1.157       .  T
C1125      C1126   1.409       .  A
C1125      C1130   1.412       .  A
C1125      C1143   1.450       .  S
C1126      C1131   1.501       .  S
C1126      C1127   1.415       .  A
C1127      C1128   1.415       .  A
C1127      C1132   1.450       .  S
C1128      C1129   1.410       .  A
C1128      C1144   1.448       .  S
C1129      C1130   1.415       .  A
C1130      C1133   1.449       .  S
C1131      C1134   1.415       .  A
C1131      C1138   1.409       .  A
C1132      N1149   1.157       .  T
C1133      N1151   1.157       .  T
C1134      C1135   1.416       .  A
C1134      C1139   1.449       .  S
C1135      C1136   1.410       .  A
C1135      C1141   1.448       .  S
C1136      C1137   1.413       .  A
C1137      C1138   1.409       .  A
C1137      C1140   1.448       .  S
C1138      C1142   1.450       .  S
C1139      N1146   1.157       .  T
C1140      N1147   1.157       .  T
C1141      N1145   1.158       .  T
C1142      N1148   1.157       .  T
C1143      N1152   1.157       .  T
C1144      N1150   1.157       .  T
C1153      C1154   1.417       .  A
C1153      C1158   1.419       .  A
C1153      C1171   1.449   1_565  S
C1154      C1159   1.511   1_565  S
C1154      C1155   1.411       .  A
C1155      C1156   1.414       .  A
C1155      C1160   1.450       .  S
C1156      C1157   1.414       .  A
C1156      C1172   1.447       .  S
C1157      C1158   1.410       .  A
C1158      C1161   1.448       .  S
C1159      C1162   1.412       .  A
C1159      C1166   1.417       .  A
C1160      N1177   1.157       .  T
C1161      N1179   1.157       .  T
C1162      C1163   1.413       .  A
C1162      C1167   1.450       .  S
C1163      C1164   1.417       .  A
C1163      C1169   1.452       .  S
C1164      C1165   1.412       .  A
C1165      C1166   1.419       .  A
C1165      C1168   1.450       .  S
C1166      C1170   1.449   1_545  S
C1167      N1174   1.157       .  T
C1168      N1175   1.157       .  T
C1169      N1173   1.157       .  T
C1170      N1176   1.157       .  T
C1171      N1180   1.157       .  T
C1172      N1178   1.156       .  T
C1181      C1182   1.410       .  A
C1181      C1186   1.412       .  A
C1181      C1199   1.450       .  S
C1182      C1187   1.494       .  S
C1182      C1183   1.409       .  A
C1183      C1184   1.408       .  A
C1183      C1188   1.452       .  S
C1184      C1185   1.418       .  A
C1184      C1200   1.452       .  S
C1185      C1186   1.415       .  A
C1186      C1189   1.449       .  S
C1187      C1190   1.410       .  A
C1187      C1194   1.410       .  A
C1188      N1205   1.157       .  T
C1189      N1207   1.157       .  T
C1190      C1191   1.409       .  A
C1190      C1195   1.451       .  S
C1191      C1192   1.416       .  A
C1191      C1197   1.451       .  S
C1192      C1193   1.417       .  A
C1193      C1194   1.410       .  A
C1193      C1196   1.452       .  S
C1194      C1198   1.451       .  S
C1195      N1202   1.157       .  T
C1196      N1203   1.157       .  T
C1197      N1201   1.157       .  T
C1198      N1204   1.157       .  T
C1199      N1208   1.157       .  T
C1200      N1206   1.157       .  T
C1209      C1210   1.410       .  A
C1209      C1214   1.415       .  A
C1209      C1227   1.450       .  S
C1210      C3123   1.498       .  S
C1210      C1211   1.407       .  A
C1211      C1212   1.410       .  A
C1211      C1216   1.453       .  S
C1212      C1213   1.424       .  A
C1212      C1228   1.452       .  S
C1213      C1214   1.419       .  A
C1214      C1217   1.450       .  S
C1215      C3118   1.498   1_554  S
C1215      C1222   1.407       .  A
C1215      C3126   1.411   1_554  A
C1216      N1233   1.157       .  T
C1217      N1235   1.157       .  T
C1218      C3123   1.411       .  A
C1218      C3127   1.414       .  A
C1218      C1223   1.450       .  S
C1219      C1220   1.417       .  A
C1219      C3126   1.414   1_554  A
C1219      C3133   1.450       .  S
C1220      C1221   1.423       .  A
C1221      C1222   1.410       .  A
C1221      C1224   1.453       .  S
C1222      C1226   1.452       .  S
C1223      N1230   1.157       .  T
C1224      N1231   1.157       .  T
C1225      C3127   1.450       .  S
C1225      N1229   1.157       .  T
C1226      N1232   1.157       .  T
C1227      N3144   1.157       .  T
C1228      N1234   1.158       .  T
N1236      C3135   1.157       .  T
C1237      C1238   1.409       .  A
C1237      C1242   1.407       .  A
C1237      C1255   1.452       .  S
C1238      C3151   1.486   1_554  S
C1238      C1239   1.407   1_554  A
C1239      C1240   1.406   1_556  A
C1239      C3152   1.452       .  S
C1240      C1241   1.419       .  A
C1240      C1256   1.452       .  S
C1241      C1242   1.416       .  A
C1242      C1245   1.451       .  S
C1243      C3146   1.486       .  S
C1243      C1246   1.409       .  A
C1243      C1250   1.410       .  A
C1244      C3147   1.452       .  S
C1244      N1261   1.157       .  T
C1245      N1263   1.158       .  T
C1246      C1247   1.407       .  A
C1246      C1251   1.451       .  S
C1247      C1248   1.411       .  A
C1247      C1253   1.449       .  S
C1248      C1249   1.412       .  A
C1249      C1250   1.405       .  A
C1249      C1252   1.451       .  S
C1250      C1254   1.452       .  S
C1251      N3166   1.157       .  T
C1252      N1259   1.157       .  T
C1253      N1257   1.157       .  T
C1254      N1260   1.157       .  T
C1255      N1264   1.157       .  T
C1256      N1262   1.157   1_455  T
N1258      C3159   1.157       .  T
C1265      C1266   1.409       .  A
C1265      C1270   1.410       .  A
C1265      C1283   1.452       .  S
C1266      C1271   1.502       .  S
C1266      C1267   1.413       .  A
C1267      C1268   1.416       .  A
C1267      C1272   1.450       .  S
C1268      C1269   1.415       .  A
C1268      C1284   1.450       .  S
C1269      C1270   1.421       .  A
C1270      C1273   1.452       .  S
C1271      C1274   1.408       .  A
C1271      C1278   1.411       .  A
C1272      N1289   1.157       .  T
C1273      N1291   1.157       .  T
C1274      C1275   1.412       .  A
C1274      C1279   1.452       .  S
C1275      C1276   1.424       .  A
C1275      C1281   1.452       .  S
C1276      C1277   1.421       .  A
C1277      C1278   1.415       .  A
C1277      C1280   1.451       .  S
C1278      C1282   1.451       .  S
C1279      N1286   1.157       .  T
C1280      N1287   1.158       .  T
C1281      N1285   1.158       .  T
C1282      N1288   1.157       .  T
C1283      N1292   1.157       .  T
C1284      N1290   1.157       .  T
C1293      C1294   1.414       .  A
C1293      C1298   1.412       .  A
C1293      C1311   1.450       .  S
C1294      C1299   1.504       .  S
C1294      C1295   1.412       .  A
C1295      C1296   1.412       .  A
C1295      C1300   1.450       .  S
C1296      C1297   1.415       .  A
C1296      C1312   1.451   1_554  S
C1297      C1298   1.413       .  A
C1298      C1301   1.452       .  S
C1299      C1302   1.415       .  A
C1299      C1306   1.411       .  A
C1300      N1317   1.157   1_454  T
C1301      N1319   1.158       .  T
C1302      C1303   1.412       .  A
C1302      C3215   1.451       .  S
C1303      C1304   1.412       .  A
C1303      C1309   1.451       .  S
C1304      C1305   1.416   1_455  A
C1305      C1306   1.413   1_655  A
C1305      C1308   1.451       .  S
C1306      C1310   1.450   1_455  S
C1307      C3210   1.451       .  S
C1307      N1314   1.157       .  T
C1308      N1315   1.157       .  T
C1309      N3221   1.157       .  T
C1310      N1316   1.157       .  T
C1311      N1320   1.157       .  T
C1312      N1318   1.157       .  T
N1313      C3217   1.157       .  T
C1321      C1322   1.408       .  A
C1321      C1326   1.409       .  A
C1321      C1339   1.451       .  S
C1322      C1327   1.493       .  S
C1322      C1323   1.410       .  A
C1323      C1324   1.410       .  A
C1323      C1328   1.451       .  S
C1324      C1325   1.418       .  A
C1324      C3248   1.452   1_554  S
C1325      C2007   1.489   1_554  S
C1325      C1326   1.418       .  A
C1326      C1329   1.452       .  S
C1327      C1330   1.410       .  A
C1327      C1334   1.410       .  A
C1328      N1345   1.157       .  T
C1329      N1347   1.157       .  T
C1330      C1331   1.408       .  A
C1330      C1335   1.451       .  S
C1331      C1332   1.415       .  A
C1331      C1337   1.453       .  S
C1332      C1333   1.415       .  A
C1333      C1334   1.412       .  A
C1333      C1336   1.450       .  S
C1334      C1338   1.450       .  S
C1335      N1342   1.157       .  T
C1336      N1343   1.157       .  T
C1337      N1341   1.157       .  T
C1338      N1344   1.157       .  T
C1339      N1348   1.157       .  T
C1340      C3232   1.452       .  S
C1340      N1346   1.158       .  T
C1349      C1350   1.407       .  A
C1349      C1354   1.409       .  A
C1349      C1367   1.452       .  S
C1350      C1355   1.501       .  S
C1350      C1351   1.413       .  A
C1351      C1352   1.416       .  A
C1351      C1356   1.450       .  S
C1352      C1353   1.416       .  A
C1352      C1368   1.450       .  S
C1353      C1354   1.422       .  A
C1354      C1357   1.453       .  S
C1355      C1358   1.405       .  A
C1355      C1362   1.411       .  A
C1356      N1373   1.157       .  T
C1357      N1375   1.158       .  T
C1358      C1359   1.409       .  A
C1358      C1363   1.453       .  S
C1359      C1360   1.429       .  A
C1359      C1365   1.453       .  S
C1360      C1361   1.424       .  A
C1361      C1362   1.419       .  A
C1361      C1364   1.450       .  S
C1362      C1366   1.451       .  S
C1363      N1370   1.157       .  T
C1364      N1371   1.158       .  T
C1365      N1369   1.158       .  T
C1366      N1372   1.157       .  T
C1367      N1376   1.157       .  T
C1368      N1374   1.157       .  T
C1377      C1378   1.404       .  A
C1377      C1382   1.403       .  A
C1377      C1395   1.455       .  S
C1378      C1383   1.500       .  S
C1378      C1379   1.416       .  A
C1379      C1380   1.419       .  A
C1379      C1384   1.448       .  S
C1380      C1381   1.411       .  A
C1380      C1396   1.447       .  S
C1381      C1382   1.425       .  A
C1382      C1385   1.451       .  S
C1383      C1386   1.411       .  A
C1383      C1390   1.413       .  A
C1384      N1401   1.157       .  T
C1385      N1403   1.157       .  T
C1386      C1387   1.415       .  A
C1386      C1391   1.449       .  S
C1387      C1388   1.418       .  A
C1387      C1393   1.451   1_655  S
C1388      C1389   1.415       .  A
C1389      C1390   1.406       .  A
C1389      C1392   1.454       .  S
C1390      C1394   1.453       .  S
C1391      N1398   1.157   1_655  T
C1392      N1399   1.157       .  T
C1393      N1397   1.157       .  T
C1394      N1400   1.157       .  T
C1395      N1404   1.157       .  T
C1396      N1402   1.157       .  T
C1405      C1406   1.409       .  A
C1405      C1410   1.413       .  A
C1405      C1423   1.450       .  S
C1406      C1411   1.496       .  S
C1406      C1407   1.410       .  A
C1407      C1408   1.409       .  A
C1407      C1412   1.452       .  S
C1408      C1409   1.417       .  A
C1408      C1424   1.452       .  S
C1409      C1410   1.418       .  A
C1410      C1413   1.450       .  S
C1411      C1414   1.410       .  A
C1411      C1418   1.408       .  A
C1412      N1429   1.157       .  T
C1413      N1431   1.157       .  T
C1414      C1415   1.412       .  A
C1414      C1419   1.450       .  S
C1415      C1416   1.416       .  A
C1415      C1421   1.451       .  S
C1416      C1417   1.419       .  A
C1417      C1418   1.411       .  A
C1417      C1420   1.451       .  S
C1418      C1422   1.451       .  S
C1419      N1426   1.157       .  T
C1420      N1427   1.157       .  T
C1421      N1425   1.157       .  T
C1422      N1428   1.157       .  T
C1423      N1432   1.157       .  T
C1424      N1430   1.157       .  T
C1433      C1434   1.411       .  A
C1433      C1438   1.414       .  A
C1433      C1451   1.451       .  S
C1434      C1439   1.505       .  S
C1434      C1435   1.413       .  A
C1435      C1436   1.416       .  A
C1435      C1440   1.450       .  S
C1436      C1437   1.415       .  A
C1436      C1452   1.450       .  S
C1437      C1438   1.419       .  A
C1438      C1441   1.451       .  S
C1439      C1442   1.415       .  A
C1439      C1446   1.411       .  A
C1440      N1457   1.157       .  T
C1441      N1459   1.157       .  T
C1442      C1443   1.416       .  A
C1442      C1447   1.449       .  S
C1443      C1444   1.413       .  A
C1443      C1449   1.450       .  S
C1444      C1445   1.417       .  A
C1445      C1446   1.411       .  A
C1445      C3356   1.452       .  S
C1446      C1450   1.451       .  S
C1447      N1454   1.157       .  T
C1448      C3353   1.452       .  S
C1448      N1455   1.157   1_556  T
C1449      N1453   1.157       .  T
C1450      N1456   1.157       .  T
C1451      N1460   1.157       .  T
C1452      N1458   1.157       .  T
C1461      C1462   1.417       .  A
C1461      C1466   1.421       .  A
C1461      C1479   1.448       .  S
C1462      C1467   1.503   1_655  S
C1462      C1463   1.405       .  A
C1463      C1464   1.403       .  A
C1463      C1468   1.454       .  S
C1464      C1465   1.423       .  A
C1464      C1480   1.451       .  S
C1465      C1466   1.412       .  A
C1466      C1469   1.449       .  S
C1467      C1470   1.415       .  A
C1467      C1474   1.413       .  A
C1468      N1485   1.157   1_655  T
C1469      N1487   1.157       .  T
C1470      C1471   1.406       .  A
C1470      C1475   1.453       .  S
C1471      C1472   1.415       .  A
C1471      C1477   1.454       .  S
C1472      C1473   1.417       .  A
C1473      C1474   1.417       .  A
C1473      C1476   1.449       .  S
C1474      C1478   1.449       .  S
C1475      N1482   1.157   1_455  T
C1476      N1483   1.157       .  T
C1477      N1481   1.157       .  T
C1478      N1484   1.157   1_455  T
C1479      N1488   1.157       .  T
C1480      N1486   1.157       .  T
C1489      C1490   1.415       .  A
C1489      C1494   1.416       .  A
C1489      C1507   1.451       .  S
C1490      C1495   1.515       .  S
C1490      C1491   1.414       .  A
C1491      C1492   1.419       .  A
C1491      C1496   1.450       .  S
C1492      C1493   1.417       .  A
C1492      C1508   1.450       .  S
C1493      C1494   1.414       .  A
C1494      C1497   1.450       .  S
C1495      C1498   1.412       .  A
C1495      C1502   1.418       .  A
C1496      N1513   1.157       .  T
C1497      N1515   1.157       .  T
C1498      C1499   1.413       .  A
C1498      C1503   1.451       .  S
C1499      C1500   1.417       .  A
C1499      C1505   1.451       .  S
C1500      C1501   1.415       .  A
C1501      C1502   1.423       .  A
C1501      C1504   1.450       .  S
C1502      C1506   1.449       .  S
C1503      N1510   1.157       .  T
C1504      N1511   1.157       .  T
C1505      N1509   1.157       .  T
C1506      N1512   1.157       .  T
C1507      N1516   1.157       .  T
C1508      N1514   1.157       .  T
C1517      C1518   1.409       .  A
C1517      C1522   1.407       .  A
C1517      C1535   1.452       .  S
C1518      C1523   1.495       .  S
C1518      C1519   1.411       .  A
C1519      C1520   1.414       .  A
C1519      C1524   1.449       .  S
C1520      C1521   1.414       .  A
C1520      C1536   1.450       .  S
C1521      C1522   1.417       .  A
C1522      C1525   1.452       .  S
C1523      C1526   1.408       .  A
C1523      C1530   1.407       .  A
C1524      N1541   1.157       .  T
C1525      N1543   1.157       .  T
C1526      C1527   1.412       .  A
C1526      C1531   1.452       .  S
C1527      C1528   1.423       .  A
C1527      C1533   1.452       .  S
C1528      C1529   1.422       .  A
C1529      C1530   1.411       .  A
C1529      C1532   1.451       .  S
C1530      C1534   1.451       .  S
C1531      N1538   1.157       .  T
C1532      N1539   1.157       .  T
C1533      N1537   1.158       .  T
C1534      N1540   1.157       .  T
C1535      N1544   1.157       .  T
C1536      N1542   1.157       .  T
C1545      C1546   1.409       .  A
C1545      C1550   1.417       .  A
C1545      C1563   1.452       .  S
C1546      C1551   1.512       .  S
C1546      C1547   1.413       .  A
C1547      C1548   1.419       .  A
C1547      C1552   1.450       .  S
C1548      C1549   1.419       .  A
C1548      C1564   1.449       .  S
C1549      C1550   1.426       .  A
C1550      C1553   1.452       .  S
C1551      C1554   1.411       .  A
C1551      C1558   1.414       .  A
C1552      N1569   1.157       .  T
C1553      N1571   1.158       .  T
C1554      C1555   1.415       .  A
C1554      C1559   1.451       .  S
C1555      C1556   1.421       .  A
C1555      C1561   1.452       .  S
C1556      C1557   1.417       .  A
C1557      C1558   1.419       .  A
C1557      C1560   1.449       .  S
C1558      C1562   1.450       .  S
C1559      N1566   1.157       .  T
C1560      N1567   1.157       .  T
C1561      N1565   1.158       .  T
C1562      N1568   1.157       .  T
C1563      N1572   1.157       .  T
C1564      N1570   1.157       .  T
C1573      C1574   1.410       .  A
C1573      C1578   1.408       .  A
C1573      C1591   1.451       .  S
C1574      C1579   1.489       .  S
C1574      C1575   1.408       .  A
C1575      C1576   1.407       .  A
C1575      C1580   1.451       .  S
C1576      C1577   1.416       .  A
C1576      C1592   1.452       .  S
C1577      C1578   1.415       .  A
C1578      C1581   1.451       .  S
C1579      C1582   1.405       .  A
C1579      C1586   1.406       .  A
C1580      N1597   1.157       .  T
C1581      N1599   1.157       .  T
C1582      C1583   1.409       .  A
C1582      C1587   1.452       .  S
C1583      C1584   1.424       .  A
C1583      C1589   1.450       .  S
C1584      C1585   1.425       .  A
C1585      C1586   1.409       .  A
C1585      C1588   1.453       .  S
C1586      C1590   1.452       .  S
C1587      N1594   1.157       .  T
C1588      N1595   1.158       .  T
C1589      N1593   1.157       .  T
C1590      N1596   1.157       .  T
C1591      N1600   1.157       .  T
C1592      N1598   1.157       .  T
C1601      C1602   1.410       .  A
C1601      C3514   1.407       .  A
C1601      C1619   1.453       .  S
C1602      C1607   1.505       .  S
C1602      C1603   1.417       .  A
C1603      C1604   1.420       .  A
C1603      C1608   1.449       .  S
C1604      C3513   1.411       .  A
C1604      C1620   1.448       .  S
C1605      C1606   1.419   1_554  A
C1605      C3512   1.411       .  A
C1606      C3509   1.407       .  A
C1606      C1609   1.453       .  S
C1607      C1610   1.402       .  A
C1607      C1614   1.415       .  A
C1608      N1625   1.157       .  T
C1609      N1627   1.157       .  T
C1610      C1611   1.409       .  A
C1610      C1615   1.455       .  S
C1611      C1612   1.437       .  A
C1611      C1617   1.454       .  S
C1612      C1613   1.417       .  A
C1613      C1614   1.422       .  A
C1613      C1616   1.449       .  S
C1614      C1618   1.449       .  S
C1615      N3530   1.157       .  T
C1616      N1623   1.157       .  T
C1617      N1621   1.157       .  T
C1618      N1624   1.157       .  T
C1619      N1628   1.157       .  T
C1620      N1626   1.157       .  T
N1622      C3523   1.157   1_554  T
C1629      C1630   1.414       .  A
C1629      C1634   1.423       .  A
C1629      C1647   1.449       .  S
C1630      C1635   1.508       .  S
C1630      C1631   1.406       .  A
C1631      C1632   1.410       .  A
C1631      C1636   1.453       .  S
C1632      C1633   1.425       .  A
C1632      C1648   1.451       .  S
C1633      C1634   1.419       .  A
C1634      C1637   1.449       .  S
C1635      C1638   1.410       .  A
C1635      C1642   1.409       .  A
C1636      N1653   1.157       .  T
C1637      N1655   1.157       .  T
C1638      C1639   1.418       .  A
C1638      C1643   1.451       .  S
C1639      C1640   1.426       .  A
C1639      C1645   1.451       .  S
C1640      C1641   1.426       .  A
C1641      C1642   1.415       .  A
C1641      C1644   1.452       .  S
C1642      C1646   1.452       .  S
C1643      N1650   1.157       .  T
C1644      N1651   1.158       .  T
C1645      N1649   1.158       .  T
C1646      N1652   1.157       .  T
C1647      N1656   1.157       .  T
C1648      N1654   1.156       .  T
C1657      C1658   1.407       .  A
C1657      C1662   1.404       .  A
C1657      C1675   1.452       .  S
C1658      C3571   1.486       .  S
C1658      C1659   1.409       .  A
C1659      C1660   1.410       .  A
C1659      C1664   1.450       .  S
C1660      C1661   1.416       .  A
C1660      C1676   1.451       .  S
C1661      C1662   1.418       .  A
C1662      C1665   1.453       .  S
C1663      C3566   1.486   1_554  S
C1663      C1666   1.409       .  A
C1663      C1670   1.410       .  A
C1664      N1681   1.157       .  T
C1665      N1683   1.157       .  T
C1666      C1667   1.407       .  A
C1666      C1671   1.451       .  S
C1667      C1668   1.414       .  A
C1667      C1673   1.452       .  S
C1668      C1669   1.411       .  A
C1669      C1670   1.407       .  A
C1669      C1672   1.451       .  S
C1670      C3582   1.451   1_554  S
C1671      N1678   1.157       .  T
C1672      N1679   1.157       .  T
C1673      N1677   1.157       .  T
C1674      C3578   1.451       .  S
C1674      N1680   1.157       .  T
C1675      N3592   1.157       .  T
C1676      N1682   1.158       .  T
N1684      C3583   1.157       .  T
C1685      C1686   1.419       .  A
C1685      C1690   1.419       .  A
C1685      C1703   1.450       .  S
C1686      C3599   1.517       .  S
C1686      C1687   1.414       .  A
C1687      C1688   1.412       .  A
C1687      C1692   1.451       .  S
C1688      C1689   1.412       .  A
C1688      C1704   1.445       .  S
C1689      C1690   1.414       .  A
C1690      C1693   1.451       .  S
C1691      C3594   1.517   1_554  S
C1691      C1694   1.413       .  A
C1691      C3606   1.418       .  A
C1692      N1709   1.157       .  T
C1693      N1711   1.157       .  T
C1694      C1695   1.416       .  A
C1694      C1699   1.451       .  S
C1695      C1696   1.421       .  A
C1695      C1701   1.452       .  S
C1696      C1697   1.416       .  A
C1697      C3606   1.418       .  A
C1697      C3608   1.450       .  S
C1698      C3599   1.418       .  A
C1698      C3605   1.418       .  A
C1698      C1702   1.451       .  S
C1699      N1706   1.157       .  T
C1700      C3605   1.450       .  S
C1700      N1707   1.158       .  T
C1701      N1705   1.157       .  T
C1702      N1708   1.157       .  T
C1703      N3620   1.157       .  T
C1704      N1710   1.156       .  T
N1712      C3611   1.157       .  T
C1713      C1714   1.408       .  A
C1713      C1718   1.410       .  A
C1713      C1731   1.450       .  S
C1714      C1719   1.488       .  S
C1714      C1715   1.409       .  A
C1715      C1716   1.406       .  A
C1715      C1720   1.452       .  S
C1716      C1717   1.417       .  A
C1716      C1732   1.452       .  S
C1717      C1718   1.415       .  A
C1718      C1721   1.449       .  S
C1719      C1722   1.408       .  A
C1719      C1726   1.407       .  A
C1720      N1737   1.157       .  T
C1721      N1739   1.157       .  T
C1722      C1723   1.406       .  A
C1722      C1727   1.452       .  S
C1723      C1724   1.418       .  A
C1723      C1729   1.452       .  S
C1724      C1725   1.418       .  A
C1725      C1726   1.409       .  A
C1725      C1728   1.452       .  S
C1726      C1730   1.450       .  S
C1727      N1734   1.157       .  T
C1728      N1735   1.158   1_545  T
C1729      N1733   1.158       .  T
C1730      N1736   1.157       .  T
C1731      N1740   1.157       .  T
C1732      N1738   1.157       .  T
C1741      C1742   1.421       .  A
C1741      C1746   1.430       .  A
C1741      C1759   1.448   1_455  S
C1742      C1747   1.516   1_455  S
C1742      C1743   1.406       .  A
C1743      C1744   1.404       .  A
C1743      C1748   1.454       .  S
C1744      C1745   1.429       .  A
C1744      C1760   1.455       .  S
C1745      C1746   1.416       .  A
C1746      C1749   1.447       .  S
C1747      C1750   1.417       .  A
C1747      C1754   1.414       .  A
C1748      N1765   1.157       .  T
C1749      N1767   1.157       .  T
C1750      C1751   1.425       .  A
C1750      C1755   1.448       .  S
C1751      C1752   1.415       .  A
C1751      C1757   1.447       .  S
C1752      C1753   1.418       .  A
C1753      C1754   1.410       .  A
C1753      C1756   1.453       .  S
C1754      C1758   1.453       .  S
C1755      N1762   1.157       .  T
C1756      N1763   1.157       .  T
C1757      N1761   1.157       .  T
C1758      N1764   1.157       .  T
C1759      N1768   1.157       .  T
C1760      N1766   1.158       .  T
C1769      C1770   1.414       .  A
C1769      C1774   1.416       .  A
C1769      C1787   1.451       .  S
C1770      C1775   1.518       .  S
C1770      C1771   1.418       .  A
C1771      C1772   1.420       .  A
C1771      C1776   1.449       .  S
C1772      C1773   1.413       .  A
C1772      C1788   1.450       .  S
C1773      C1774   1.412       .  A
C1774      C1777   1.444       .  S
C1775      C1778   1.418       .  A
C1775      C1782   1.414       .  A
C1776      N1793   1.157       .  T
C1777      N1795   1.155       .  T
C1778      C1779   1.421       .  A
C1778      C1783   1.449       .  S
C1779      C1780   1.413       .  A
C1779      C1785   1.450       .  S
C1780      C1781   1.416       .  A
C1781      C1782   1.416       .  A
C1781      C1784   1.449       .  S
C1782      C1786   1.451       .  S
C1783      N1790   1.157       .  T
C1784      N1791   1.156       .  T
C1785      N1789   1.157       .  T
C1786      N1792   1.157       .  T
C1787      N1796   1.157       .  T
C1788      N1794   1.157       .  T
C1797      C1798   1.403       .  A
C1797      C1802   1.407       .  A
C1797      C1815   1.455       .  S
C1798      C1803   1.499       .  S
C1798      C1799   1.412       .  A
C1799      C1800   1.419       .  A
C1799      C1804   1.449       .  S
C1800      C1801   1.419       .  A
C1800      C1816   1.449       .  S
C1801      C1802   1.429       .  A
C1802      C1805   1.451       .  S
C1803      C1806   1.409       .  A
C1803      C1810   1.410       .  A
C1804      N1821   1.157       .  T
C1805      N1823   1.156       .  T
C1806      C1807   1.411       .  A
C1806      C1811   1.452       .  S
C1807      C1808   1.422       .  A
C1807      C1813   1.452       .  S
C1808      C1809   1.420       .  A
C1809      C1810   1.415       .  A
C1809      C1812   1.451       .  S
C1810      C1814   1.451       .  S
C1811      N1818   1.157       .  T
C1812      N1819   1.158       .  T
C1813      N1817   1.157       .  T
C1814      N1820   1.157       .  T
C1815      N1824   1.157       .  T
C1816      N1822   1.157       .  T
C1825      C1826   1.407       .  A
C1825      C1830   1.408       .  A
C1825      C1843   1.453       .  S
C1826      C1831   1.489       .  S
C1826      C1827   1.406       .  A
C1827      C1828   1.410       .  A
C1827      C1832   1.451       .  S
C1828      C1829   1.422       .  A
C1828      C1844   1.452       .  S
C1829      C1830   1.421       .  A
C1830      C1833   1.450       .  S
C1831      C1834   1.407       .  A
C1831      C1838   1.409       .  A
C1832      N1849   1.157       .  T
C1833      N1851   1.157       .  T
C1834      C1835   1.408       .  A
C1834      C1839   1.451       .  S
C1835      C1836   1.417       .  A
C1835      C1841   1.452       .  S
C1836      C2227   1.484   1_554  S
C1836      C1837   1.416       .  A
C1837      C1838   1.408       .  A
C1837      C3748   1.452   1_554  S
C1838      C1842   1.452       .  S
C1839      N1846   1.157       .  T
C1840      C3745   1.452       .  S
C1840      N1847   1.157       .  T
C1841      N1845   1.157       .  T
C1842      N1848   1.157       .  T
C1843      N1852   1.157       .  T
C1844      N1850   1.157       .  T
C1853      C1854   1.409       .  A
C1853      C1858   1.414       .  A
C1853      C1871   1.451       .  S
C1854      C1859   1.497       .  S
C1854      C1855   1.407       .  A
C1855      C1856   1.409       .  A
C1855      C1860   1.452       .  S
C1856      C1857   1.423       .  A
C1856      C1872   1.452       .  S
C1857      C1858   1.419       .  A
C1858      C1861   1.448       .  S
C1859      C1862   1.412       .  A
C1859      C1866   1.408       .  A
C1860      N1877   1.157       .  T
C1861      N1879   1.156       .  T
C1862      C1863   1.412       .  A
C1862      C1867   1.450       .  S
C1863      C1864   1.414       .  A
C1863      C1869   1.450       .  S
C1864      C1865   1.421       .  A
C1865      C1866   1.411       .  A
C1865      C3776   1.452   1_554  S
C1866      C1870   1.451       .  S
C1867      N1874   1.157       .  T
C1868      C3773   1.452       .  S
C1868      N1875   1.158       .  T
C1869      N1873   1.157       .  T
C1870      N1876   1.157       .  T
C1871      N1880   1.157       .  T
C1872      N1878   1.158       .  T
C1881      C1882   1.410       .  A
C1881      C1886   1.409       .  A
C1881      C1899   1.452       .  S
C1882      C1887   1.496       .  S
C1882      C1883   1.410       .  A
C1883      C1884   1.413       .  A
C1883      C1888   1.449       .  S
C1884      C1885   1.413       .  A
C1884      C1900   1.450       .  S
C1885      C1886   1.417       .  A
C1886      C1889   1.451       .  S
C1887      C1890   1.408       .  A
C1887      C1894   1.409       .  A
C1888      N1905   1.157       .  T
C1889      N1907   1.157       .  T
C1890      C1891   1.411       .  A
C1890      C1895   1.451       .  S
C1891      C1892   1.421       .  A
C1891      C1897   1.452       .  S
C1892      C1893   1.419       .  A
C1893      C1894   1.411       .  A
C1893      C1896   1.451       .  S
C1894      C1898   1.451       .  S
C1895      N1902   1.157       .  T
C1896      N1903   1.157       .  T
C1897      N1901   1.158       .  T
C1898      N1904   1.157       .  T
C1899      N1908   1.157       .  T
C1900      N1906   1.157       .  T
Fe1909     O1925   2.034       .  S
Fe1909     O1915   2.074       .  S
Fe1909     O1922   2.093       .  S
Fe1909     O1914   2.019       .  S
Fe1909     O1920   1.941       .  S
Fe1910     O1913   2.007       .  S
Fe1910     O1917   2.124       .  S
Fe1910     O1921   2.035       .  S
Fe1910     O1926   2.144       .  S
Fe1910     O1920   1.927       .  S
Fe1911     O1929   2.168       .  S
Fe1911     O1916   2.024       .  S
Fe1911     O1923   2.067       .  S
Fe1911     O1912   2.144       .  S
Fe1911     O1920   1.943       .  S
O1912      C1919   1.291       .  A
O1913      C1927   1.256       .  A
O1914      C1919   1.268       .  A
O1915      C1918   1.267       .  A
O1916      C1928   1.260       .  A
O1917      C1930   1.283       .  A
C1918      O1923   1.268       .  A
C1918      C3793   1.487       .  S
C1919      C3709   1.507       .  S
O1921      C1924   1.262       .  A
O1922      C1924   1.273       .  A
C1924      C3737   1.495       .  S
O1925      C1930   1.268       .  A
O1926      C1928   1.284       .  A
C1927      O1929   1.288       .  A
C1927      C3653   1.516       .  S
C1928      C3688   1.497       .  S
C1930      C3765   1.499       .  S
Fe1931     O1947   2.041       .  S
Fe1931     O1937   2.052       .  S
Fe1931     O1944   2.070   1_655  S
Fe1931     O1936   2.041   1_655  S
Fe1931     O1942   1.963   1_655  S
Fe1932     O1935   2.020   1_455  S
Fe1932     O1939   2.153   1_455  S
Fe1932     O1943   2.039       .  S
Fe1932     O1948   2.120       .  S
Fe1932     O1942   1.936       .  S
Fe1933     O1951   2.139       .  S
Fe1933     O1938   2.046   1_655  S
Fe1933     O1945   2.060       .  S
Fe1933     O1934   2.153   1_655  S
Fe1933     O1942   1.938   1_655  S
O1934      C1941   1.297       .  A
O1935      C1949   1.260       .  A
O1936      C1941   1.278       .  A
O1937      C1940   1.259       .  A
O1938      C1950   1.262       .  A
O1939      C1952   1.294       .  A
C1940      O1945   1.260       .  A
C1940      C3625   1.483       .  S
C1941      C3541   1.510       .  S
O1943      C1946   1.255       .  A
O1944      C1946   1.260       .  A
C1946      C3569   1.482       .  S
O1947      C1952   1.274       .  A
O1948      C1950   1.278       .  A
C1949      O1951   1.287       .  A
C1949      C3520   1.516       .  S
C1950      C3681   1.497       .  S
C1952      C3597   1.495       .  S
Fe1953     O1969   2.044       .  S
Fe1953     O1959   2.072       .  S
Fe1953     O1966   2.083       .  S
Fe1953     O1958   2.046       .  S
Fe1953     O1964   1.957       .  S
Fe1954     O1957   2.026       .  S
Fe1954     O1961   2.139       .  S
Fe1954     O1965   2.046       .  S
Fe1954     O1970   2.127       .  S
Fe1954     O1964   1.950       .  S
Fe1955     O1967   2.041       .  S
Fe1955     O1956   2.142       .  S
O1956      C1963   1.289       .  A
O1957      C1971   1.261       .  A
O1960      C1972   1.260       .  A
O1961      C1974   1.289       .  A
C1962      O1967   1.260       .  A
C1962      C3492   1.500       .  S
C1963      C3408   1.502       .  S
O1965      C1968   1.260       .  A
O1966      C1968   1.266       .  A
C1968      C3429   1.486       .  S
O1969      C1974   1.273       .  A
O1970      C1972   1.281       .  A
C1971      O1973   1.284       .  A
C1971      C3660   1.498       .  S
C1972      C3513   1.490       .  S
C1974      C3464   1.504       .  S
Fe1975     O1991   2.051       .  S
Fe1975     O1981   2.078       .  S
Fe1975     O1988   2.086       .  S
Fe1975     O1980   2.048       .  S
Fe1975     O1986   1.956       .  S
Fe1976     O1979   2.028       .  S
Fe1976     O1983   2.112       .  S
Fe1976     O1987   2.061       .  S
Fe1976     O1992   2.101       .  S
Fe1976     O1986   1.947       .  S
Fe1977     O1995   2.110       .  S
Fe1977     O1982   2.040       .  S
Fe1977     O1989   2.080       .  S
Fe1977     O1978   2.097       .  S
Fe1977     O1986   1.953       .  S
O1978      C1985   1.283       .  A
O1979      C1993   1.263       .  A
O1980      C1985   1.278       .  A
O1981      C1984   1.265       .  A
O1982      C1994   1.264       .  A
O1983      C1996   1.285       .  A
C1984      O1989   1.267       .  A
C1984      C3457   1.513       .  S
C1985      C3485   1.482       .  S
O1987      C1990   1.261       .  A
O1988      C1990   1.265       .  A
C1990      C3345   1.497       .  S
O1991      C1996   1.278       .  A
O1992      C1994   1.278       .  A
C1993      O1995   1.281       .  A
C1993      C3289   1.493       .  S
C1994      C3373   1.494       .  S
C1996      C3317   1.491       .  S
Fe1997     O2013   2.055       .  S
Fe1997     O2003   2.050       .  S
Fe1997     O2010   2.057       .  S
Fe1997     O2002   2.056       .  S
Fe1997     O2008   1.967       .  S
Fe1998     O2001   2.027       .  S
Fe1998     O2005   2.094       .  S
Fe1998     O2014   2.088       .  S
Fe1998     O2008   1.966       .  S
Fe1999     O2017   2.096       .  S
Fe1999     O2004   2.041       .  S
Fe1999     O2011   2.074       .  S
Fe1999     O2000   2.086       .  S
Fe1999     O2008   1.974       .  S
O2000      C2007   1.279       .  A
O2001      C2015   1.263       .  A
O2002      C2007   1.275       .  A
O2003      C2006   1.262       .  A
O2005      C2018   1.280       .  A
C2006      O2011   1.266       .  A
C2006      C3261   1.497       .  S
O2009      C2012   1.263       .  A
C2012      C3772   1.491       .  S
O2013      C2018   1.274       .  A
C2015      O2017   1.275       .  A
C2015      C3380   1.488       .  S
C2016      C3205   1.483       .  S
C2018      C3800   1.496       .  S
Fe2019     O2035   2.041   1_655  S
Fe2019     O2025   2.062       .  S
Fe2019     O2032   2.058   1_655  S
Fe2019     O2024   2.049       .  S
Fe2019     O2030   1.963       .  S
Fe2020     O2023   2.041       .  S
Fe2020     O2027   2.088       .  S
Fe2020     O2031   2.072       .  S
Fe2020     O2036   2.092       .  S
Fe2020     O2030   1.963   1_455  S
Fe2021     O2039   2.087       .  S
Fe2021     O2026   2.029       .  S
Fe2021     O2033   2.065       .  S
Fe2021     O2022   2.092       .  S
Fe2021     O2030   1.962       .  S
O2022      C2029   1.279       .  A
O2023      C2037   1.264       .  A
O2024      C2029   1.274       .  A
O2025      C2028   1.263       .  A
O2026      C2038   1.265       .  A
O2027      C2040   1.280       .  A
C2028      O2033   1.264       .  A
C2028      C3128   1.496       .  S
C2029      C3100   1.487       .  S
O2031      C2034   1.265       .  A
O2032      C2034   1.262       .  A
C2034      C3177   1.495       .  S
O2035      C2040   1.274       .  A
O2036      C2038   1.277   1_455  A
C2037      O2039   1.273   1_455  A
C2037      C3212   1.484       .  S
C2038      C3296   1.486       .  S
C2040      C3149   1.483       .  S
Fe2041     O2057   2.044       .  S
Fe2041     O2047   2.073       .  S
Fe2041     O2054   2.064       .  S
Fe2041     O2046   2.037       .  S
Fe2041     O2052   1.958       .  S
Fe2042     O2045   2.029       .  S
Fe2042     O2049   2.126       .  S
Fe2042     O2053   2.049       .  S
Fe2042     O2058   2.112       .  S
Fe2042     O2052   1.963       .  S
Fe2043     O2061   2.125       .  S
Fe2043     O2048   2.040       .  S
Fe2043     O2055   2.048       .  S
Fe2043     O2044   2.130       .  S
Fe2043     O2052   1.969       .  S
O2044      C2051   1.285       .  A
O2045      C2059   1.260       .  A
O2046      C2051   1.269       .  A
O2047      C2050   1.266       .  A
O2048      C2060   1.264       .  A
O2049      C2062   1.287       .  A
C2050      O2055   1.263       .  A
C2050      C3009   1.494       .  S
C2051      C3268   1.513       .  S
O2053      C2056   1.259       .  A
O2054      C2056   1.263       .  A
C2056      C3240   1.483       .  S
O2057      C2062   1.272       .  A
O2058      C2060   1.278       .  A
C2059      O2061   1.279       .  A
C2059      C3065   1.493       .  S
C2060      C3037   1.487       .  S
C2062      C2988   1.511       .  S
Fe2063     O2079   2.042       .  S
Fe2063     O2069   2.076       .  S
Fe2063     O2076   2.077   1_565  S
Fe2063     O2068   2.034   1_565  S
Fe2063     O2074   1.943       .  S
Fe2064     O2067   2.038       .  S
Fe2064     O2071   2.120       .  S
Fe2064     O2075   2.048   1_565  S
Fe2064     O2080   2.112   1_565  S
Fe2064     O2074   1.940       .  S
Fe2065     O2083   2.112       .  S
Fe2065     O2070   2.031   1_565  S
Fe2065     O2077   2.041       .  S
Fe2065     O2066   2.117   1_565  S
Fe2065     O2074   1.943       .  S
O2066      C2073   1.283       .  A
O2067      C2081   1.266       .  A
O2068      C2073   1.269       .  A
O2069      C2072   1.267       .  A
O2070      C2082   1.262       .  A
O2071      C2084   1.283       .  A
C2072      O2077   1.261       .  A
C2072      C3156   1.471       .  S
C2073      C2925   1.492       .  S
O2075      C2078   1.263       .  A
O2076      C2078   1.268       .  A
C2078      C2953   1.484       .  S
O2079      C2084   1.270       .  A
O2080      C2082   1.277       .  A
C2081      O2083   1.278       .  A
C2081      C3044   1.490       .  S
C2082      C2904   1.481       .  S
C2084      C3184   1.506       .  S
Fe2085     O2101   2.039       .  S
Fe2085     O2091   2.096       .  S
Fe2085     O2098   2.083       .  S
Fe2085     O2096   1.923       .  S
Fe2086     O2089   2.007       .  S
Fe2086     O2093   2.134       .  S
Fe2086     O2097   2.051       .  S
Fe2086     O2102   2.161       .  S
Fe2086     O2096   1.941       .  S
Fe2087     O2099   2.035   1_554  S
Fe2087     O2088   2.119   1_554  S
O2088      C2095   1.281       .  A
O2089      C2103   1.260       .  A
O2090      C2095   1.267   1_554  A
O2092      C2104   1.251       .  A
O2093      C2106   1.286       .  A
C2094      O2099   1.265       .  A
C2094      C2813   1.478       .  S
C2095      C2841   1.503       .  S
O2097      C2100   1.268       .  A
O2098      C2100   1.273       .  A
C2100      C2876   1.476       .  S
O2101      C2106   1.270       .  A
O2102      C2104   1.282       .  A
C2103      O2105   1.287       .  A
C2103      C3072   1.490       .  S
C2104      C2897   1.505       .  S
C2106      C2792   1.506       .  S
Fe2107     O2123   2.049   1_565  S
Fe2107     O2113   2.084       .  S
Fe2107     O2120   2.080   1_565  S
Fe2107     O2112   2.040       .  S
Fe2107     O2118   1.957       .  S
Fe2108     O2111   2.051       .  S
Fe2108     O2115   2.083       .  S
Fe2108     O2119   2.079       .  S
Fe2108     O2124   2.084       .  S
Fe2108     O2118   1.952   1_545  S
Fe2109     O2127   2.097       .  S
Fe2109     O2114   2.048       .  S
Fe2109     O2121   2.068       .  S
Fe2109     O2110   2.098       .  S
Fe2109     O2118   1.953       .  S
O2110      C2117   1.279       .  A
O2111      C2125   1.268       .  A
O2112      C2117   1.271       .  A
O2113      C2116   1.268       .  A
O2114      C2126   1.269       .  A
O2115      C2128   1.278       .  A
C2116      O2121   1.266       .  A
C2116      C2701   1.508       .  S
C2117      C2673   1.477       .  S
O2119      C2122   1.269       .  A
O2120      C2122   1.268       .  A
C2122      C3604   1.506       .  S
O2123      C2128   1.274       .  A
O2124      C2126   1.275   1_545  A
C2125      O2127   1.276   1_545  A
C2125      C2729   1.499       .  S
C2126      C2764   1.488       .  S
C2128      C3632   1.486       .  S
Fe2129     O2145   2.054       .  S
Fe2129     O2135   2.090       .  S
Fe2129     O2142   2.091       .  S
Fe2129     O2134   2.049       .  S
Fe2129     O2140   1.951       .  S
Fe2130     O2133   2.044       .  S
Fe2130     O2137   2.100       .  S
Fe2130     O2141   2.071       .  S
Fe2130     O2146   2.095       .  S
Fe2130     O2140   1.947       .  S
Fe2131     O2149   2.093       .  S
Fe2131     O2136   2.052       .  S
Fe2131     O2132   2.095       .  S
Fe2131     O2140   1.951       .  S
O2132      C2139   1.278       .  A
O2133      C2147   1.269       .  A
O2134      C2139   1.272       .  A
O2136      C2148   1.269       .  A
O2137      C2150   1.280       .  A
C2138      O2143   1.269       .  A
C2138      C2981   1.510       .  S
C2139      C3016   1.478       .  S
O2141      C2144   1.268       .  A
O2142      C2144   1.270       .  A
C2144      C2645   1.513       .  S
O2145      C2150   1.273       .  A
O2146      C2148   1.275       .  A
C2147      O2149   1.277       .  A
C2148      C2596   1.503       .  S
Fe2151     O2167   2.051       .  S
Fe2151     O2157   2.086       .  S
Fe2151     O2164   2.089       .  S
Fe2151     O2156   2.058       .  S
Fe2151     O2162   1.950       .  S
Fe2152     O2155   2.059       .  S
Fe2152     O2159   2.095       .  S
Fe2152     O2163   2.080       .  S
Fe2152     O2168   2.099       .  S
Fe2152     O2162   1.961       .  S
Fe2153     O2171   2.096       .  S
Fe2153     O2158   2.063       .  S
Fe2153     O2165   2.080       .  S
Fe2153     O2154   2.089       .  S
Fe2153     O2162   1.957       .  S
O2154      C2161   1.276       .  A
O2155      C2169   1.271       .  A
O2156      C2161   1.272       .  A
O2157      C2160   1.270       .  A
O2158      C2170   1.271       .  A
O2159      C2172   1.276       .  A
C2160      O2165   1.271       .  A
C2160      C3401   1.501       .  S
C2161      C3436   1.500       .  S
O2163      C2166   1.271       .  A
O2164      C2166   1.272       .  A
C2166      C2785   1.508       .  S
O2167      C2172   1.269       .  A
O2168      C2170   1.276       .  A
C2169      O2171   1.276       .  A
C2169      C2589   1.494       .  S
C2170      C2736   1.498       .  S
C2172      C2820   1.502       .  S
Fe2173     O2189   2.042       .  S
Fe2173     O2179   2.087       .  S
Fe2173     O2186   2.090       .  S
Fe2173     O2178   2.051       .  S
Fe2173     O2184   1.925       .  S
Fe2174     O2177   2.041       .  S
Fe2174     O2181   2.106       .  S
Fe2174     O2185   2.072       .  S
Fe2174     O2190   2.130       .  S
Fe2174     O2184   1.934       .  S
Fe2175     O2193   2.107       .  S
Fe2175     O2180   2.034       .  S
Fe2175     O2187   2.055       .  S
Fe2175     O2176   2.095       .  S
Fe2175     O2184   1.939       .  S
O2176      C2183   1.277       .  A
O2177      C2191   1.263       .  A
O2178      C2183   1.270       .  A
O2179      C2182   1.274       .  A
O2180      C2192   1.263       .  A
O2181      C2194   1.279       .  A
C2182      O2187   1.269       .  A
C2182      C2848   1.496       .  S
C2183      C2869   1.491       .  S
O2185      C2188   1.272       .  A
O2186      C2188   1.274       .  A
C2188      C2512   1.508       .  S
O2189      C2194   1.268       .  A
O2190      C2192   1.280       .  A
C2191      O2193   1.273       .  A
C2191      C2568   1.488       .  S
C2192      C2533   1.492       .  S
C2194      C2484   1.479       .  S
Fe2195     O2211   2.042       .  S
Fe2195     O2201   2.093       .  S
Fe2195     O2208   2.096       .  S
Fe2195     O2200   2.037       .  S
Fe2195     O2206   1.925       .  S
Fe2196     O2199   2.032       .  S
Fe2196     O2203   2.097       .  S
Fe2196     O2207   2.063       .  S
Fe2196     O2212   2.121       .  S
Fe2196     O2206   1.936       .  S
Fe2197     O2215   2.127       .  S
Fe2197     O2202   2.038       .  S
Fe2197     O2209   2.074       .  S
Fe2197     O2198   2.095       .  S
Fe2197     O2206   1.930       .  S
O2198      C2205   1.277       .  A
O2199      C2213   1.262       .  A
O2200      C2205   1.268       .  A
O2201      C2204   1.274       .  A
O2202      C2214   1.262       .  A
O2203      C2216   1.278       .  A
C2204      O2209   1.273       .  A
C2204      C3548   1.516       .  S
C2205      C3576   1.474       .  S
O2207      C2210   1.271       .  A
O2208      C2210   1.276       .  A
C2210      C2932   1.491       .  S
O2211      C2216   1.269       .  A
O2212      C2214   1.276       .  A
C2213      O2215   1.279       .  A
C2213      C2540   1.493       .  S
C2214      C2456   1.494       .  S
C2216      C2960   1.485       .  S
Fe2217     O2233   2.049       .  S
Fe2217     O2223   2.076       .  S
Fe2217     O2230   2.078       .  S
Fe2217     O2222   2.046       .  S
Fe2217     O2228   1.930       .  S
Fe2218     O2221   2.039       .  S
Fe2218     O2225   2.098       .  S
Fe2218     O2234   2.119       .  S
Fe2218     O2228   1.935       .  S
Fe2219     O2237   2.106       .  S
Fe2219     O2224   2.038       .  S
Fe2219     O2231   2.071       .  S
Fe2219     O2220   2.090       .  S
Fe2219     O2228   1.941       .  S
O2220      C2227   1.277       .  A
O2221      C2235   1.263       .  A
O2222      C2227   1.271       .  A
O2223      C2226   1.270       .  A
O2225      C2238   1.279       .  A
C2226      O2231   1.271       .  A
C2226      C3716   1.499       .  S
O2229      C2232   1.272       .  A
C2232      C2421   1.505       .  S
O2233      C2238   1.272       .  A
C2235      O2237   1.274       .  A
C2235      C2561   1.490       .  S
C2236      C2449   1.491       .  S
C2238      C2393   1.492       .  S
Fe2239     O2255   2.052       .  S
Fe2239     O2245   2.060       .  S
Fe2239     O2252   2.066       .  S
Fe2239     O2244   2.051       .  S
Fe2239     O2250   1.976       .  S
Fe2240     O2243   2.045       .  S
Fe2240     O2247   2.121       .  S
Fe2240     O2251   2.050       .  S
Fe2240     O2256   2.115       .  S
Fe2240     O2250   1.976       .  S
Fe2241     O2259   2.111       .  S
Fe2241     O2246   2.043       .  S
Fe2241     O2253   2.053       .  S
Fe2241     O2242   2.111       .  S
Fe2241     O2250   1.980       .  S
O2242      C2249   1.282       .  A
O2243      C2257   1.263       .  A
O2244      C2249   1.271       .  A
O2245      C2248   1.265       .  A
O2246      C2258   1.263       .  A
O2247      C2260   1.285       .  A
C2248      O2253   1.263       .  A
C2248      C2624   1.488       .  S
C2249      C2428   1.506       .  S
O2251      C2254   1.261       .  A
O2252      C2254   1.265       .  A
C2254      C2400   1.486       .  S
O2255      C2260   1.271       .  A
O2256      C2258   1.278       .  A
C2257      O2259   1.276       .  A
C2257      C2337   1.491       .  S
C2258      C2372   1.491       .  S
C2260      C2652   1.505       .  S
Fe2261     O2277   2.039       .  S
Fe2261     O2267   2.076       .  S
Fe2261     O2274   2.087       .  S
Fe2261     O2266   2.036       .  S
Fe2261     O2272   1.960       .  S
Fe2262     O2265   2.014       .  S
Fe2262     O2278   2.127       .  S
Fe2262     O2272   1.951       .  S
Fe2263     O2281   2.138       .  S
Fe2263     O2268   2.026       .  S
Fe2263     O2275   2.051       .  S
Fe2263     O2264   2.143       .  S
Fe2263     O2272   1.953       .  S
O2264      C2271   1.292       .  A
O2265      C2279   1.260       .  A
O2266      C2271   1.272       .  A
O2267      C2270   1.265       .  A
O2268      C2280   1.259       .  A
O2269      C2282   1.285       .  A
C2270      O2275   1.260       .  A
C2270      C3324   1.492       .  S
C2271      C2505   1.510       .  S
O2273      C2276   1.260       .  A
C2276      C2477   1.498       .  S
O2278      C2280   1.279       .  A
C2279      O2281   1.284       .  A
C2279      C2316   1.509       .  S
C2280      C2365   1.492       .  S
C2282      C3352   1.491       .  S
Fe2283     O2299   2.031       .  S
Fe2283     O2289   2.062       .  S
Fe2283     O2296   2.084       .  S
Fe2283     O2288   2.025       .  S
Fe2283     O2294   1.953       .  S
Fe2284     O2287   2.010       .  S
Fe2284     O2291   2.132       .  S
Fe2284     O2295   2.033       .  S
Fe2284     O2300   2.126       .  S
Fe2284     O2294   1.940       .  S
Fe2285     O2303   2.149       .  S
Fe2285     O2290   2.024       .  S
Fe2285     O2297   2.065       .  S
Fe2285     O2286   2.146       .  S
Fe2285     O2294   1.951       .  S
O2286      C2293   1.293       .  A
O2287      C2301   1.259       .  A
O2288      C2293   1.271       .  A
O2289      C2292   1.263       .  A
O2290      C2302   1.259       .  A
O2291      C2304   1.288       .  A
C2292      O2297   1.264       .  A
C2292      C3093   1.489       .  S
C2293      C2708   1.510       .  S
O2295      C2298   1.257       .  A
O2296      C2298   1.267       .  A
C2298      C2680   1.493       .  S
O2299      C2304   1.270       .  A
O2300      C2302   1.280       .  A
C2301      O2303   1.286       .  A
C2301      C2309   1.513       .  S
C2302      C2344   1.489       .  S
C2304      C3121   1.499       .  S
C2305      C2306   1.405       .  A
C2305      C2310   1.407       .  A
C2305      C2323   1.454       .  S
C2306      C2311   1.507       .  S
C2306      C2307   1.416       .  A
C2307      C2308   1.425       .  A
C2307      C2312   1.448       .  S
C2308      C2309   1.416       .  A
C2308      C2324   1.447       .  S
C2309      C2310   1.431       .  A
C2310      C2313   1.455       .  S
C2311      C2314   1.406       .  A
C2311      C2318   1.415       .  A
C2312      N2329   1.157       .  T
C2313      N2331   1.158       .  T
C2314      C2315   1.408       .  A
C2314      C2319   1.454       .  S
C2315      C2321   1.454       .  S
C2316      C2317   1.418       .  A
C2317      C2320   1.449       .  S
C2318      C2322   1.448   1_556  S
C2319      N2326   1.157       .  T
C2320      N2327   1.158       .  T
C2321      N2325   1.157       .  T
C2322      N2328   1.157       .  T
C2324      N2330   1.157       .  T
C2333      C2334   1.413       .  A
C2333      C2338   1.414       .  A
C2333      C2351   1.450       .  S
C2334      C2339   1.513       .  S
C2334      C2335   1.418       .  A
C2335      C2336   1.418       .  A
C2335      C2340   1.450       .  S
C2336      C2337   1.410       .  A
C2336      C2352   1.448       .  S
C2337      C2338   1.412       .  A
C2338      C2341   1.447       .  S
C2339      C2342   1.416       .  A
C2339      C2346   1.413       .  A
C2340      N2357   1.157       .  T
C2341      N2359   1.156       .  T
C2342      C2343   1.417       .  A
C2342      C2347   1.450       .  S
C2343      C2344   1.412       .  A
C2343      C2349   1.450       .  S
C2344      C2345   1.414       .  A
C2345      C2346   1.415       .  A
C2345      C2348   1.447       .  S
C2346      C2350   1.450       .  S
C2347      N2354   1.157       .  T
C2348      N2355   1.156       .  T
C2349      N2353   1.157       .  T
C2350      N2356   1.157       .  T
C2351      N2360   1.157       .  T
C2352      N2358   1.157       .  T
C2361      C2362   1.415       .  A
C2361      C2366   1.417       .  A
C2361      C2379   1.450       .  S
C2362      C2367   1.510       .  S
C2362      C2363   1.411       .  A
C2363      C2364   1.415       .  A
C2363      C2368   1.450       .  S
C2364      C2365   1.415       .  A
C2364      C2380   1.446       .  S
C2365      C2366   1.412       .  A
C2366      C2369   1.447       .  S
C2367      C2370   1.411       .  A
C2367      C2374   1.416       .  A
C2368      N2385   1.157       .  T
C2369      N2387   1.157       .  T
C2370      C2371   1.414       .  A
C2370      C2375   1.449       .  S
C2371      C2372   1.413       .  A
C2371      C2377   1.445       .  S
C2372      C2373   1.409       .  A
C2373      C2374   1.417       .  A
C2373      C2376   1.447       .  S
C2374      C2378   1.449       .  S
C2375      N2382   1.157       .  T
C2376      N2383   1.157       .  T
C2377      N2381   1.155       .  T
C2378      N2384   1.157       .  T
C2379      N2388   1.157       .  T
C2380      N2386   1.156       .  T
C2389      C2390   1.410       .  A
C2389      C2394   1.410       .  A
C2389      C2407   1.451       .  S
C2390      C2395   1.496       .  S
C2390      C2391   1.409       .  A
C2391      C2392   1.411       .  A
C2391      C2396   1.451       .  S
C2392      C2393   1.419       .  A
C2392      C2408   1.452       .  S
C2393      C2394   1.418       .  A
C2394      C2397   1.451       .  S
C2395      C2398   1.411       .  A
C2395      C2402   1.410       .  A
C2396      N2413   1.157       .  T
C2397      N2415   1.157       .  T
C2398      C2399   1.411       .  A
C2398      C2403   1.451       .  S
C2399      C2400   1.415       .  A
C2399      C2405   1.450       .  S
C2400      C2401   1.416       .  A
C2401      C2402   1.410       .  A
C2401      C2404   1.452       .  S
C2402      C2406   1.451       .  S
C2403      N2410   1.157       .  T
C2404      N2411   1.157       .  T
C2405      N2409   1.157       .  T
C2406      N2412   1.157       .  T
C2407      N2416   1.157       .  T
C2408      N2414   1.157       .  T
C2417      C2418   1.410       .  A
C2417      C2422   1.413       .  A
C2417      C2435   1.452       .  S
C2418      C2423   1.505       .  S
C2418      C2419   1.410       .  A
C2419      C2420   1.416       .  A
C2419      C2424   1.450       .  S
C2420      C2421   1.421       .  A
C2420      C2436   1.450       .  S
C2421      C2422   1.422       .  A
C2422      C2425   1.452       .  S
C2423      C2426   1.407       .  A
C2423      C2430   1.413       .  A
C2424      N2441   1.157       .  T
C2425      N2443   1.158       .  T
C2426      C2427   1.409       .  A
C2426      C2431   1.453       .  S
C2427      C2428   1.424       .  A
C2427      C2433   1.452       .  S
C2428      C2429   1.420       .  A
C2429      C2430   1.419       .  A
C2429      C2432   1.450       .  S
C2430      C2434   1.450       .  S
C2431      N2438   1.157       .  T
C2432      N2439   1.158       .  T
C2433      N2437   1.157       .  T
C2434      N2440   1.157       .  T
C2435      N2444   1.157       .  T
C2436      N2442   1.157       .  T
C2445      C2446   1.406       .  A
C2446      C2451   1.498       .  S
C2446      C2447   1.413       .  A
C2447      C2448   1.417       .  A
C2447      C2452   1.445       .  S
C2448      C2449   1.412       .  A
C2448      C2464   1.449       .  S
C2450      C2453   1.452       .  S
C2451      C2454   1.413       .  A
C2451      C2458   1.407       .  A
C2452      N2469   1.156       .  T
C2453      N2471   1.158       .  T
C2454      C2455   1.419       .  A
C2454      C2459   1.448       .  S
C2455      C2456   1.415       .  A
C2455      C2461   1.449       .  S
C2456      C2457   1.423       .  A
C2457      C2458   1.405       .  A
C2457      C2460   1.454       .  S
C2458      C2462   1.454       .  S
C2459      N2466   1.157       .  T
C2460      N2467   1.157       .  T
C2461      N2465   1.157       .  T
C2462      N2468   1.157       .  T
C2463      N2472   1.157       .  T
C2464      N2470   1.157       .  T
C2473      C2474   1.410       .  A
C2473      C2478   1.412       .  A
C2473      C2491   1.451       .  S
C2474      C2479   1.496       .  S
C2474      C2475   1.408       .  A
C2475      C2476   1.408       .  A
C2475      C2480   1.452       .  S
C2476      C2477   1.421       .  A
C2477      C2478   1.421       .  A
C2478      C2481   1.451       .  S
C2479      C2482   1.411       .  A
C2479      C2486   1.413       .  A
C2480      N2497   1.157       .  T
C2481      N2499   1.158       .  T
C2482      C2483   1.409       .  A
C2482      C2487   1.451       .  S
C2483      C2484   1.413       .  A
C2483      C2489   1.450       .  S
C2484      C2485   1.410       .  A
C2485      C2486   1.410       .  A
C2485      C2488   1.451       .  S
C2486      C2490   1.451       .  S
C2487      N2494   1.157       .  T
C2488      N2495   1.157       .  T
C2489      N2493   1.157       .  T
C2490      N2496   1.157       .  T
C2491      N2500   1.157       .  T
C2492      N2498   1.157       .  T
C2501      C2502   1.405       .  A
C2501      C2506   1.409       .  A
C2501      C2519   1.454       .  S
C2502      C2507   1.506       .  S
C2502      C2503   1.413       .  A
C2503      C2504   1.421       .  A
C2503      C2508   1.449       .  S
C2504      C2505   1.418       .  A
C2504      C2520   1.448       .  S
C2505      C2506   1.427       .  A
C2506      C2509   1.450       .  S
C2507      C2510   1.410       .  A
C2507      C2514   1.410       .  A
C2508      N2525   1.157       .  T
C2509      N2527   1.156       .  T
C2510      C2511   1.413       .  A
C2510      C2515   1.452       .  S
C2511      C2512   1.421       .  A
C2511      C2517   1.450       .  S
C2512      C2513   1.423       .  A
C2513      C2514   1.417       .  A
C2513      C2516   1.450       .  S
C2514      C2518   1.450       .  S
C2515      N2522   1.157       .  T
C2516      N2523   1.157       .  T
C2517      N2521   1.157       .  T
C2518      N2524   1.157       .  T
C2519      N2528   1.157       .  T
C2520      N2526   1.157       .  T
C2529      C2530   1.413       .  A
C2529      C2534   1.417       .  A
C2529      C2547   1.445       .  S
C2530      C2535   1.500       .  S
C2530      C2531   1.406       .  A
C2531      C2532   1.408       .  A
C2531      C2536   1.454       .  S
C2532      C2533   1.423       .  A
C2532      C2548   1.452       .  S
C2533      C2534   1.411       .  A
C2534      C2537   1.449       .  S
C2535      C2538   1.408       .  A
C2535      C2542   1.414       .  A
C2536      N2553   1.157       .  T
C2537      N2555   1.157       .  T
C2538      C2539   1.406       .  A
C2538      C2543   1.454       .  S
C2539      C2540   1.422       .  A
C2539      C2545   1.453       .  S
C2540      C2541   1.413       .  A
C2541      C2542   1.419       .  A
C2541      C2544   1.449       .  S
C2542      C2546   1.448       .  S
C2543      N2550   1.157       .  T
C2544      N2551   1.157       .  T
C2545      N2549   1.158       .  T
C2546      N2552   1.157       .  T
C2547      N2556   1.156       .  T
C2548      N2554   1.158       .  T
C2557      C2558   1.411       .  A
C2557      C2562   1.416       .  A
C2557      C2575   1.448       .  S
C2558      C2563   1.493       .  S
C2558      C2559   1.406       .  A
C2559      C2560   1.404       .  A
C2559      C2564   1.454       .  S
C2560      C2561   1.422       .  A
C2560      C2576   1.453       .  S
C2561      C2562   1.414       .  A
C2562      C2565   1.449       .  S
C2563      C2566   1.406       .  A
C2563      C2570   1.411       .  A
C2564      N2581   1.157       .  T
C2565      N2583   1.157       .  T
C2566      C2567   1.403       .  A
C2566      C2571   1.454       .  S
C2567      C2568   1.421       .  A
C2567      C2573   1.453       .  S
C2568      C2569   1.414       .  A
C2569      C2570   1.417       .  A
C2569      C2572   1.448       .  S
C2570      C2574   1.448       .  S
C2571      N2578   1.157       .  T
C2572      N2579   1.157       .  T
C2573      N2577   1.158       .  T
C2574      N2580   1.157       .  T
C2575      N2584   1.157       .  T
C2576      N2582   1.158       .  T
C2585      C2586   1.414       .  A
C2585      C2590   1.413       .  A
C2585      C2603   1.449       .  S
C2586      C2591   1.506   1_545  S
C2586      C2587   1.412       .  A
C2587      C2588   1.415       .  A
C2587      C2592   1.449       .  S
C2588      C2589   1.416       .  A
C2588      C2604   1.449       .  S
C2589      C2590   1.412       .  A
C2590      C2593   1.450       .  S
C2591      C2594   1.413       .  A
C2591      C2598   1.411       .  A
C2592      N2609   1.157   1_545  T
C2593      N2611   1.157       .  T
C2594      C2595   1.412       .  A
C2594      C2599   1.451       .  S
C2595      C2596   1.417       .  A
C2595      C2601   1.452       .  S
C2596      C2597   1.421       .  A
C2597      C2598   1.417       .  A
C2597      C2600   1.449       .  S
C2598      C2602   1.450       .  S
C2599      N2606   1.157       .  T
C2600      N2607   1.157       .  T
C2601      N2605   1.157       .  T
C2602      N2608   1.157       .  T
C2603      N2612   1.157       .  T
C2604      N2610   1.157       .  T
C2613      C2614   1.409       .  A
C2613      C2618   1.412       .  A
C2613      C2631   1.450       .  S
C2614      C2619   1.496       .  S
C2614      C2615   1.410       .  A
C2615      C2616   1.411       .  A
C2615      C2620   1.451       .  S
C2616      C2617   1.417       .  A
C2617      C2618   1.417       .  A
C2618      C2621   1.451       .  S
C2619      C2622   1.410       .  A
C2619      C2626   1.410       .  A
C2620      N2637   1.157       .  T
C2621      N2639   1.157       .  T
C2622      C2623   1.410       .  A
C2622      C2627   1.451       .  S
C2623      C2624   1.418       .  A
C2623      C2629   1.452       .  S
C2624      C2625   1.416       .  A
C2625      C2626   1.411       .  A
C2625      C2628   1.451       .  S
C2626      C2630   1.450       .  S
C2627      N2634   1.157       .  T
C2628      N2635   1.157       .  T
C2629      N2633   1.158       .  T
C2630      N2636   1.157       .  T
C2631      N2640   1.157       .  T
C2632      N2638   1.157       .  T
C2641      C2642   1.409       .  A
C2641      C2646   1.417       .  A
C2641      C2659   1.450       .  S
C2642      C2647   1.508       .  S
C2642      C2643   1.410       .  A
C2643      C2644   1.417       .  A
C2643      C2648   1.451       .  S
C2644      C2645   1.424       .  A
C2644      C2660   1.451       .  S
C2645      C2646   1.424       .  A
C2646      C2649   1.451       .  S
C2647      C2650   1.413       .  A
C2647      C2654   1.408       .  A
C2648      N2665   1.157       .  T
C2649      N2667   1.158       .  T
C2650      C2651   1.419       .  A
C2650      C2655   1.449       .  S
C2651      C2652   1.417       .  A
C2651      C2657   1.450       .  S
C2652      C2653   1.424       .  A
C2653      C2654   1.413       .  A
C2653      C2656   1.452       .  S
C2654      C2658   1.452       .  S
C2655      N2662   1.157       .  T
C2656      N2663   1.157       .  T
C2657      N2661   1.157       .  T
C2658      N2664   1.157       .  T
C2659      N2668   1.157       .  T
C2660      N2666   1.157       .  T
C2669      C2670   1.410       .  A
C2669      C2674   1.407       .  A
C2669      C2687   1.452       .  S
C2670      C2671   1.407       .  A
C2671      C2672   1.407       .  A
C2672      C2673   1.414       .  A
C2672      C2688   1.449       .  S
C2673      C2674   1.412       .  A
C2674      C2677   1.451       .  S
C2675      C2678   1.405       .  A
C2675      C2682   1.405       .  A
C2676      N2693   1.157       .  T
C2677      N2695   1.157       .  T
C2678      C2679   1.408       .  A
C2678      C2683   1.452       .  S
C2679      C2680   1.422       .  A
C2679      C2685   1.451       .  S
C2680      C2681   1.420       .  A
C2681      C2682   1.408       .  A
C2681      C2684   1.448       .  S
C2683      N2690   1.157       .  T
C2684      N2691   1.156       .  T
C2685      N2689   1.157       .  T
C2686      N2692   1.157       .  T
C2687      N2696   1.157       .  T
C2688      N2694   1.156       .  T
C2697      C2698   1.411       .  A
C2697      C2702   1.414       .  A
C2697      C2715   1.452       .  S
C2698      C2703   1.505       .  S
C2698      C2699   1.408       .  A
C2699      C2700   1.416       .  A
C2699      C2704   1.451       .  S
C2700      C2701   1.424       .  A
C2700      C2716   1.451       .  S
C2701      C2702   1.422       .  A
C2702      C2705   1.451       .  S
C2703      C2706   1.404       .  A
C2703      C2710   1.413       .  A
C2704      N2721   1.157       .  T
C2705      N2723   1.158       .  T
C2706      C2707   1.408       .  A
C2706      C2711   1.454       .  S
C2707      C2708   1.428       .  A
C2707      C2713   1.451       .  S
C2708      C2709   1.420       .  A
C2709      C2710   1.421       .  A
C2709      C2712   1.449       .  S
C2710      C2714   1.449       .  S
C2711      N2718   1.157       .  T
C2712      N2719   1.157       .  T
C2713      N2717   1.156       .  T
C2714      N2720   1.157       .  T
C2715      N2724   1.157       .  T
C2716      N2722   1.157       .  T
C2725      C2726   1.412       .  A
C2725      C2730   1.417   1_545  A
C2725      C2743   1.450   1_545  S
C2726      C2731   1.508       .  S
C2726      C2727   1.413       .  A
C2727      C2728   1.413       .  A
C2727      C2732   1.450       .  S
C2728      C2729   1.415       .  A
C2728      C2744   1.452       .  S
C2729      C2730   1.419   1_545  A
C2730      C2733   1.449       .  S
C2731      C2734   1.412       .  A
C2731      C2738   1.413       .  A
C2732      N2749   1.157       .  T
C2733      N2751   1.157       .  T
C2734      C2735   1.417       .  A
C2734      C2739   1.449       .  S
C2735      C2736   1.417       .  A
C2735      C2741   1.449       .  S
C2736      C2737   1.411       .  A
C2737      C2738   1.413       .  A
C2737      C2740   1.449       .  S
C2738      C2742   1.449       .  S
C2739      N2746   1.157   1_545  T
C2740      N2747   1.157       .  T
C2741      N2745   1.157       .  T
C2742      N2748   1.157       .  T
C2743      N2752   1.157       .  T
C2744      N2750   1.158       .  T
C2753      C2754   1.414       .  A
C2753      C2758   1.411       .  A
C2753      C2771   1.451       .  S
C2754      C2759   1.503       .  S
C2754      C2755   1.411       .  A
C2756      C2772   1.450   1_554  S
C2757      C2758   1.415       .  A
C2758      C2761   1.452       .  S
C2759      C2762   1.414       .  A
C2759      C2766   1.411       .  A
C2760      N2777   1.157   1_565  T
C2761      N2779   1.158       .  T
C2762      C2763   1.412       .  A
C2763      C2764   1.413       .  A
C2763      C2769   1.452       .  S
C2764      C2765   1.418       .  A
C2765      C2766   1.412       .  A
C2765      C2768   1.451   1_565  S
C2766      C2770   1.451       .  S
C2767      N2774   1.157       .  T
C2768      N2775   1.157       .  T
C2769      N2773   1.158       .  T
C2770      N2776   1.157   1_565  T
C2771      N2780   1.157       .  T
C2772      N2778   1.157       .  T
C2781      C2782   1.409       .  A
C2781      C2786   1.415       .  A
C2781      C2799   1.451       .  S
C2782      C2787   1.509       .  S
C2782      C2783   1.413       .  A
C2783      C2784   1.420       .  A
C2783      C2788   1.450       .  S
C2784      C2785   1.418       .  A
C2784      C2800   1.450       .  S
C2785      C2786   1.422       .  A
C2786      C2789   1.450       .  S
C2787      C2790   1.410       .  A
C2787      C2794   1.413       .  A
C2788      N2805   1.157       .  T
C2789      N2807   1.157       .  T
C2790      C2791   1.413       .  A
C2790      C2795   1.451       .  S
C2791      C2792   1.422       .  A
C2791      C2797   1.452       .  S
C2792      C2793   1.419       .  A
C2793      C2794   1.419       .  A
C2793      C2796   1.450       .  S
C2794      C2798   1.449       .  S
C2795      N2802   1.157       .  T
C2796      N2803   1.158       .  T
C2797      N2801   1.157       .  T
C2798      N2804   1.157       .  T
C2799      N2808   1.157       .  T
C2800      N2806   1.157       .  T
C2809      C2810   1.412       .  A
C2809      C2814   1.412       .  A
C2809      C2827   1.449       .  S
C2810      C2815   1.492       .  S
C2810      C2811   1.409       .  A
C2811      C2812   1.405       .  A
C2811      C2816   1.453       .  S
C2812      C2813   1.415       .  A
C2812      C2828   1.453       .  S
C2813      C2814   1.412       .  A
C2814      C2817   1.450   1_556  S
C2815      C2818   1.408       .  A
C2815      C2822   1.406       .  A
C2816      N2833   1.157       .  T
C2818      C2819   1.411       .  A
C2818      C2823   1.452       .  S
C2819      C2820   1.423       .  A
C2819      C2825   1.451       .  S
C2820      C2821   1.425       .  A
C2821      C2822   1.409       .  A
C2821      C2824   1.452       .  S
C2822      C2826   1.452       .  S
C2823      N2830   1.157       .  T
C2824      N2831   1.158       .  T
C2825      N2829   1.158       .  T
C2826      N2832   1.157       .  T
C2827      N2836   1.157       .  T
C2828      N2834   1.157       .  T
C2837      C2838   1.407       .  A
C2837      C2842   1.410       .  A
C2837      C2855   1.452       .  S
C2838      C2843   1.496       .  S
C2838      C2839   1.409       .  A
C2839      C2840   1.414       .  A
C2839      C2844   1.452       .  S
C2840      C2841   1.420       .  A
C2840      C2856   1.446       .  S
C2841      C2842   1.423       .  A
C2842      C2845   1.452       .  S
C2843      C2846   1.407       .  A
C2843      C2850   1.410       .  A
C2844      N2861   1.157       .  T
C2845      N2863   1.157       .  T
C2846      C2847   1.408       .  A
C2846      C2851   1.452       .  S
C2847      C2848   1.421       .  A
C2847      C2853   1.450       .  S
C2848      C2849   1.419       .  A
C2849      C2850   1.413       .  A
C2849      C2852   1.450       .  S
C2850      C2854   1.451       .  S
C2851      N2858   1.157       .  T
C2852      N2859   1.157       .  T
C2853      N2857   1.156       .  T
C2854      N2860   1.157       .  T
C2855      N2864   1.157       .  T
C2856      N2862   1.156       .  T
C2865      C2866   1.408       .  A
C2865      C2870   1.408       .  A
C2865      C2883   1.452       .  S
C2866      C2871   1.490       .  S
C2866      C2867   1.407       .  A
C2867      C2868   1.410       .  A
C2867      C2872   1.451       .  S
C2868      C2869   1.420       .  A
C2868      C2884   1.452       .  S
C2869      C2870   1.420       .  A
C2870      C2873   1.451       .  S
C2871      C2874   1.410       .  A
C2871      C2878   1.410       .  A
C2872      N2889   1.157       .  T
C2873      N2891   1.157       .  T
C2874      C2875   1.407       .  A
C2874      C2879   1.451       .  S
C2875      C2876   1.413       .  A
C2875      C2881   1.452       .  S
C2876      C2877   1.412       .  A
C2877      C2878   1.409       .  A
C2877      C2880   1.450       .  S
C2878      C2882   1.450       .  S
C2879      N2886   1.157       .  T
C2880      N2887   1.157       .  T
C2881      N2885   1.157       .  T
C2882      N2888   1.157       .  T
C2883      N2892   1.157       .  T
C2884      N2890   1.158       .  T
C2893      C2894   1.408       .  A
C2893      C2898   1.402       .  A
C2893      C2911   1.453       .  S
C2894      C2899   1.511       .  S
C2894      C2895   1.422       .  A
C2896      C2897   1.412       .  A
C2896      C2912   1.447       .  S
C2898      C2901   1.454       .  S
C2899      C2902   1.420       .  A
C2899      C2906   1.417       .  A
C2900      N2917   1.157       .  T
C2901      N2919   1.158       .  T
C2902      C2903   1.410       .  A
C2902      C2907   1.451       .  S
C2903      C2904   1.404       .  A
C2903      C2909   1.449       .  S
C2904      C2905   1.411       .  A
C2905      C2906   1.415       .  A
C2905      C2908   1.450       .  S
C2906      C2910   1.449       .  S
C2907      N2914   1.157       .  T
C2908      N2915   1.157       .  T
C2909      N2913   1.157   1_545  T
C2910      N2916   1.157       .  T
C2911      N2920   1.157       .  T
C2912      N2918   1.157       .  T
C2921      C2922   1.408       .  A
C2921      C2926   1.407       .  A
C2922      C2923   1.412       .  A
C2923      C2924   1.414       .  A
C2923      C2928   1.450   1_556  S
C2924      C2925   1.416       .  A
C2924      C2940   1.450       .  S
C2925      C2926   1.419       .  A
C2926      C2929   1.453       .  S
C2927      C2930   1.408       .  A
C2928      N2945   1.157       .  T
C2929      N2947   1.157       .  T
C2930      C2931   1.409       .  A
C2930      C2935   1.452       .  S
C2931      C2932   1.417       .  A
C2931      C2937   1.449       .  S
C2932      C2933   1.415       .  A
C2933      C2936   1.450       .  S
C2934      C2938   1.450   1_554  S
C2935      N2942   1.157       .  T
C2937      N2941   1.156       .  T
C2938      N2944   1.157       .  T
C2939      N2948   1.157       .  T
C2940      N2946   1.157       .  T
C2949      C2950   1.409       .  A
C2949      C2954   1.410       .  A
C2949      C2967   1.451       .  S
C2950      C2955   1.489       .  S
C2950      C2951   1.408       .  A
C2951      C2952   1.406       .  A
C2951      C2956   1.452       .  S
C2952      C2953   1.417       .  A
C2952      C2968   1.452       .  S
C2953      C2954   1.417       .  A
C2954      C2957   1.451       .  S
C2955      C2958   1.408       .  A
C2955      C2962   1.409       .  A
C2956      N2973   1.157       .  T
C2957      N2975   1.157       .  T
C2958      C2959   1.409       .  A
C2958      C2963   1.451       .  S
C2959      C2960   1.417       .  A
C2959      C2965   1.451       .  S
C2960      C2961   1.418       .  A
C2961      C2962   1.407       .  A
C2961      C2964   1.452       .  S
C2962      C2966   1.452       .  S
C2963      N2970   1.157       .  T
C2964      N2971   1.158       .  T
C2965      N2969   1.157       .  T
C2966      N2972   1.157       .  T
C2967      N2976   1.157       .  T
C2968      N2974   1.157       .  T
C2977      C2978   1.410       .  A
C2977      C2982   1.418       .  A
C2977      C2995   1.450       .  S
C2978      C2983   1.510       .  S
C2978      C2979   1.412       .  A
C2979      C2980   1.415       .  A
C2979      C2984   1.451       .  S
C2980      C2981   1.420       .  A
C2980      C2996   1.451       .  S
C2981      C2982   1.423       .  A
C2982      C2985   1.451       .  S
C2983      C2986   1.413       .  A
C2983      C2990   1.407       .  A
C2984      N3001   1.157       .  T
C2985      N3003   1.157       .  T
C2986      C2987   1.421       .  A
C2986      C2991   1.449       .  S
C2987      C2988   1.421       .  A
C2987      C2993   1.450       .  S
C2988      C2989   1.427       .  A
C2989      C2990   1.411       .  A
C2989      C2992   1.453       .  S
C2990      C2994   1.453       .  S
C2991      N2998   1.157       .  T
C2992      N2999   1.157       .  T
C2993      N2997   1.158       .  T
C2994      N3000   1.157       .  T
C2995      N3004   1.157       .  T
C3005      C3006   1.408       .  A
C3005      C3010   1.411       .  A
C3005      C3023   1.451       .  S
C3006      C3011   1.493       .  S
C3006      C3007   1.408       .  A
C3007      C3008   1.410       .  A
C3007      C3012   1.452       .  S
C3008      C3009   1.420       .  A
C3008      C3024   1.451       .  S
C3009      C3010   1.418       .  A
C3010      C3013   1.451       .  S
C3011      C3014   1.411       .  A
C3011      C3018   1.410       .  A
C3012      N3029   1.157       .  T
C3013      N3031   1.157       .  T
C3014      C3015   1.408       .  A
C3014      C3019   1.452       .  S
C3015      C3016   1.412       .  A
C3015      C3021   1.450       .  S
C3016      C3017   1.413       .  A
C3017      C3018   1.410       .  A
C3017      C3020   1.452       .  S
C3018      C3022   1.450       .  S
C3019      N3026   1.157       .  T
C3020      N3027   1.157       .  T
C3021      N3025   1.157       .  T
C3022      N3028   1.157       .  T
C3023      N3032   1.157       .  T
C3024      N3030   1.157       .  T
C3033      C3034   1.409       .  A
C3033      C3038   1.412       .  A
C3033      C3051   1.450       .  S
C3034      C3039   1.501       .  S
C3034      C3035   1.415       .  A
C3035      C3036   1.415       .  A
C3035      C3040   1.450       .  S
C3036      C3037   1.410       .  A
C3036      C3052   1.448       .  S
C3037      C3038   1.415       .  A
C3038      C3041   1.449       .  S
C3039      C3042   1.415       .  A
C3039      C3046   1.409       .  A
C3040      N3057   1.157       .  T
C3041      N3059   1.157       .  T
C3042      C3043   1.416       .  A
C3042      C3047   1.449       .  S
C3043      C3044   1.410       .  A
C3043      C3049   1.448       .  S
C3044      C3045   1.413       .  A
C3045      C3046   1.410       .  A
C3045      C3048   1.448       .  S
C3046      C3050   1.450       .  S
C3047      N3054   1.157       .  T
C3048      N3055   1.157       .  T
C3049      N3053   1.158       .  T
C3050      N3056   1.157       .  T
C3051      N3060   1.157       .  T
C3052      N3058   1.157       .  T
C3061      C3062   1.417       .  A
C3061      C3066   1.419       .  A
C3061      C3079   1.449   1_565  S
C3062      C3067   1.511   1_565  S
C3062      C3063   1.411       .  A
C3063      C3064   1.414       .  A
C3063      C3068   1.450       .  S
C3064      C3065   1.414       .  A
C3064      C3080   1.447       .  S
C3065      C3066   1.410       .  A
C3066      C3069   1.448       .  S
C3067      C3070   1.412       .  A
C3067      C3074   1.417       .  A
C3068      N3085   1.157       .  T
C3069      N3087   1.157       .  T
C3070      C3071   1.413       .  A
C3070      C3075   1.450       .  S
C3071      C3072   1.417       .  A
C3071      C3077   1.452       .  S
C3072      C3073   1.412       .  A
C3073      C3074   1.419       .  A
C3073      C3076   1.450       .  S
C3074      C3078   1.449   1_545  S
C3075      N3082   1.157       .  T
C3076      N3083   1.157       .  T
C3077      N3081   1.157       .  T
C3078      N3084   1.157       .  T
C3079      N3088   1.157       .  T
C3080      N3086   1.156       .  T
C3089      C3090   1.410       .  A
C3089      C3094   1.412       .  A
C3089      C3107   1.450       .  S
C3090      C3095   1.494       .  S
C3090      C3091   1.409       .  A
C3091      C3092   1.408       .  A
C3091      C3096   1.452       .  S
C3092      C3093   1.418       .  A
C3092      C3108   1.452       .  S
C3093      C3094   1.415       .  A
C3094      C3097   1.449       .  S
C3095      C3098   1.410       .  A
C3095      C3102   1.410       .  A
C3096      N3113   1.157       .  T
C3097      N3115   1.157       .  T
C3098      C3099   1.409       .  A
C3098      C3103   1.451       .  S
C3099      C3100   1.416       .  A
C3099      C3105   1.451       .  S
C3100      C3101   1.417       .  A
C3101      C3102   1.410       .  A
C3101      C3104   1.452       .  S
C3102      C3106   1.451       .  S
C3103      N3110   1.157       .  T
C3104      N3111   1.157       .  T
C3105      N3109   1.157       .  T
C3106      N3112   1.157       .  T
C3107      N3116   1.157       .  T
C3108      N3114   1.157       .  T
C3117      C3118   1.410       .  A
C3117      C3122   1.415       .  A
C3117      C3135   1.450   1_556  S
C3118      C3119   1.407       .  A
C3119      C3120   1.409       .  A
C3119      C3124   1.453       .  S
C3120      C3121   1.424       .  A
C3120      C3136   1.452       .  S
C3121      C3122   1.419       .  A
C3122      C3125   1.450       .  S
C3123      C3130   1.407       .  A
C3124      N3141   1.157       .  T
C3125      N3143   1.157       .  T
C3126      C3131   1.450       .  S
C3127      C3128   1.417       .  A
C3128      C3129   1.423       .  A
C3129      C3130   1.410       .  A
C3129      C3132   1.453       .  S
C3130      C3134   1.452       .  S
C3131      N3138   1.157       .  T
C3132      N3139   1.157       .  T
C3133      N3137   1.157   1_554  T
C3134      N3140   1.157       .  T
C3136      N3142   1.158       .  T
C3145      C3146   1.409       .  A
C3145      C3150   1.407       .  A
C3145      C3163   1.452       .  S
C3146      C3147   1.407       .  A
C3147      C3148   1.406       .  A
C3148      C3149   1.419       .  A
C3148      C3164   1.452       .  S
C3149      C3150   1.416       .  A
C3150      C3153   1.451       .  S
C3151      C3154   1.409       .  A
C3151      C3158   1.410       .  A
C3152      N3169   1.157       .  T
C3153      N3171   1.158       .  T
C3154      C3155   1.407       .  A
C3154      C3159   1.451       .  S
C3155      C3156   1.411       .  A
C3155      C3161   1.449       .  S
C3156      C3157   1.412       .  A
C3157      C3158   1.405       .  A
C3157      C3160   1.451       .  S
C3158      C3162   1.452   1_556  S
C3160      N3167   1.157       .  T
C3161      N3165   1.157       .  T
C3162      N3168   1.157       .  T
C3163      N3172   1.157       .  T
C3164      N3170   1.157   1_455  T
C3173      C3174   1.409       .  A
C3173      C3178   1.410       .  A
C3173      C3191   1.452       .  S
C3174      C3179   1.502       .  S
C3174      C3175   1.413       .  A
C3175      C3176   1.416       .  A
C3175      C3180   1.450       .  S
C3176      C3177   1.415       .  A
C3176      C3192   1.450       .  S
C3177      C3178   1.420       .  A
C3178      C3181   1.452       .  S
C3179      C3182   1.408       .  A
C3179      C3186   1.411       .  A
C3180      N3197   1.157       .  T
C3181      N3199   1.157       .  T
C3182      C3183   1.412       .  A
C3182      C3187   1.452       .  S
C3183      C3184   1.424       .  A
C3183      C3189   1.452       .  S
C3184      C3185   1.421       .  A
C3185      C3186   1.415       .  A
C3185      C3188   1.451       .  S
C3186      C3190   1.451       .  S
C3187      N3194   1.157       .  T
C3188      N3195   1.158       .  T
C3189      N3193   1.158       .  T
C3190      N3196   1.157       .  T
C3191      N3200   1.157       .  T
C3192      N3198   1.157       .  T
C3201      C3202   1.414       .  A
C3201      C3206   1.412       .  A
C3201      C3219   1.450       .  S
C3202      C3207   1.504       .  S
C3202      C3203   1.412       .  A
C3203      C3204   1.412       .  A
C3203      C3208   1.450       .  S
C3204      C3205   1.415       .  A
C3204      C3220   1.451       .  S
C3205      C3206   1.413       .  A
C3206      C3209   1.452       .  S
C3207      C3210   1.415       .  A
C3207      C3214   1.411       .  A
C3208      N3225   1.157   1_455  T
C3209      N3227   1.158       .  T
C3210      C3211   1.412       .  A
C3211      C3212   1.412       .  A
C3211      C3217   1.451       .  S
C3212      C3213   1.416   1_455  A
C3213      C3214   1.413   1_655  A
C3213      C3216   1.451       .  S
C3214      C3218   1.450   1_455  S
C3215      N3222   1.157   1_554  T
C3216      N3223   1.157       .  T
C3218      N3224   1.157       .  T
C3219      N3228   1.157       .  T
C3220      N3226   1.157       .  T
C3229      C3230   1.408       .  A
C3229      C3234   1.409       .  A
C3229      C3247   1.451       .  S
C3230      C3235   1.493       .  S
C3230      C3231   1.410       .  A
C3231      C3232   1.410       .  A
C3231      C3236   1.451       .  S
C3232      C3233   1.418       .  A
C3233      C3234   1.418       .  A
C3234      C3237   1.452       .  S
C3235      C3238   1.410       .  A
C3235      C3242   1.410       .  A
C3236      N3253   1.157       .  T
C3237      N3255   1.157       .  T
C3238      C3239   1.408       .  A
C3238      C3243   1.451       .  S
C3239      C3240   1.415       .  A
C3239      C3245   1.453       .  S
C3240      C3241   1.415       .  A
C3241      C3242   1.412       .  A
C3241      C3244   1.450       .  S
C3242      C3246   1.450       .  S
C3243      N3250   1.157       .  T
C3244      N3251   1.157       .  T
C3245      N3249   1.157       .  T
C3246      N3252   1.157       .  T
C3247      N3256   1.157       .  T
C3248      N3254   1.158       .  T
C3257      C3258   1.408       .  A
C3257      C3262   1.409       .  A
C3257      C3275   1.452       .  S
C3258      C3263   1.501       .  S
C3258      C3259   1.413       .  A
C3259      C3260   1.416       .  A
C3259      C3264   1.450       .  S
C3260      C3261   1.416       .  A
C3260      C3276   1.450       .  S
C3261      C3262   1.422       .  A
C3262      C3265   1.453       .  S
C3263      C3266   1.405       .  A
C3263      C3270   1.411       .  A
C3264      N3281   1.157       .  T
C3265      N3283   1.158       .  T
C3266      C3267   1.409       .  A
C3266      C3271   1.453       .  S
C3267      C3268   1.429       .  A
C3267      C3273   1.453       .  S
C3268      C3269   1.424       .  A
C3269      C3270   1.419       .  A
C3269      C3272   1.450       .  S
C3270      C3274   1.451       .  S
C3271      N3278   1.157       .  T
C3272      N3279   1.158       .  T
C3273      N3277   1.158       .  T
C3274      N3280   1.157       .  T
C3275      N3284   1.157       .  T
C3276      N3282   1.157       .  T
C3285      C3286   1.404       .  A
C3285      C3290   1.403       .  A
C3285      C3303   1.455       .  S
C3286      C3291   1.500       .  S
C3286      C3287   1.416       .  A
C3287      C3288   1.419       .  A
C3287      C3292   1.448       .  S
C3288      C3289   1.411       .  A
C3288      C3304   1.447       .  S
C3289      C3290   1.425       .  A
C3290      C3293   1.451       .  S
C3291      C3294   1.411       .  A
C3291      C3298   1.414       .  A
C3292      N3309   1.157       .  T
C3293      N3311   1.157       .  T
C3294      C3295   1.415       .  A
C3294      C3299   1.449       .  S
C3295      C3296   1.417       .  A
C3295      C3301   1.451   1_655  S
C3296      C3297   1.415       .  A
C3297      C3298   1.406       .  A
C3297      C3300   1.454       .  S
C3298      C3302   1.453       .  S
C3299      N3306   1.157   1_655  T
C3300      N3307   1.157       .  T
C3301      N3305   1.157       .  T
C3302      N3308   1.157       .  T
C3303      N3312   1.157       .  T
C3304      N3310   1.157       .  T
C3313      C3314   1.409       .  A
C3313      C3318   1.413       .  A
C3313      C3331   1.450       .  S
C3314      C3319   1.496       .  S
C3314      C3315   1.410       .  A
C3315      C3316   1.409       .  A
C3315      C3320   1.452       .  S
C3316      C3317   1.417       .  A
C3316      C3332   1.452       .  S
C3317      C3318   1.418       .  A
C3318      C3321   1.450       .  S
C3319      C3322   1.410       .  A
C3319      C3326   1.408       .  A
C3320      N3337   1.157       .  T
C3321      N3339   1.157       .  T
C3322      C3323   1.412       .  A
C3322      C3327   1.450       .  S
C3323      C3324   1.416       .  A
C3323      C3329   1.451       .  S
C3324      C3325   1.419       .  A
C3325      C3326   1.411       .  A
C3325      C3328   1.451       .  S
C3326      C3330   1.451       .  S
C3327      N3334   1.157       .  T
C3328      N3335   1.158       .  T
C3329      N3333   1.157       .  T
C3330      N3336   1.157       .  T
C3331      N3340   1.157       .  T
C3332      N3338   1.157       .  T
C3341      C3342   1.411       .  A
C3341      C3346   1.414       .  A
C3341      C3359   1.451       .  S
C3342      C3347   1.505       .  S
C3342      C3343   1.413       .  A
C3343      C3344   1.416       .  A
C3343      C3348   1.450       .  S
C3344      C3345   1.415       .  A
C3344      C3360   1.450       .  S
C3345      C3346   1.419       .  A
C3346      C3349   1.451       .  S
C3347      C3350   1.415       .  A
C3347      C3354   1.411       .  A
C3348      N3365   1.157       .  T
C3349      N3367   1.157       .  T
C3350      C3351   1.416       .  A
C3350      C3355   1.449       .  S
C3351      C3352   1.413       .  A
C3351      C3357   1.450       .  S
C3352      C3353   1.416       .  A
C3353      C3354   1.411       .  A
C3354      C3358   1.451       .  S
C3355      N3362   1.157       .  T
C3356      N3363   1.157       .  T
C3357      N3361   1.157       .  T
C3358      N3364   1.157       .  T
C3359      N3368   1.157       .  T
C3360      N3366   1.157       .  T
C3369      C3370   1.417       .  A
C3369      C3374   1.421       .  A
C3369      C3387   1.448       .  S
C3370      C3375   1.503   1_655  S
C3370      C3371   1.405       .  A
C3371      C3372   1.403       .  A
C3371      C3376   1.454       .  S
C3372      C3373   1.423       .  A
C3372      C3388   1.451       .  S
C3373      C3374   1.412       .  A
C3374      C3377   1.449       .  S
C3375      C3378   1.415       .  A
C3375      C3382   1.413       .  A
C3376      N3393   1.157   1_655  T
C3377      N3395   1.157       .  T
C3378      C3379   1.406       .  A
C3378      C3383   1.453       .  S
C3379      C3380   1.415       .  A
C3379      C3385   1.454       .  S
C3380      C3381   1.417       .  A
C3381      C3382   1.417       .  A
C3381      C3384   1.449       .  S
C3382      C3386   1.449       .  S
C3383      N3390   1.157   1_455  T
C3384      N3391   1.157       .  T
C3385      N3389   1.157       .  T
C3386      N3392   1.157   1_455  T
C3387      N3396   1.157       .  T
C3388      N3394   1.157       .  T
C3397      C3398   1.415       .  A
C3397      C3402   1.416       .  A
C3397      C3415   1.451       .  S
C3398      C3403   1.515       .  S
C3398      C3399   1.414       .  A
C3399      C3400   1.419       .  A
C3399      C3404   1.450       .  S
C3400      C3401   1.417       .  A
C3400      C3416   1.450       .  S
C3401      C3402   1.414       .  A
C3402      C3405   1.450       .  S
C3403      C3406   1.412       .  A
C3403      C3410   1.418       .  A
C3404      N3421   1.157       .  T
C3405      N3423   1.157       .  T
C3406      C3407   1.413       .  A
C3406      C3411   1.451       .  S
C3407      C3408   1.417       .  A
C3407      C3413   1.451       .  S
C3408      C3409   1.415       .  A
C3409      C3410   1.423       .  A
C3409      C3412   1.450       .  S
C3410      C3414   1.449       .  S
C3411      N3418   1.157       .  T
C3412      N3419   1.157       .  T
C3413      N3417   1.157   1_556  T
C3414      N3420   1.157       .  T
C3415      N3424   1.157       .  T
C3416      N3422   1.157       .  T
C3425      C3426   1.409       .  A
C3425      C3430   1.407       .  A
C3425      C3443   1.452       .  S
C3426      C3431   1.495       .  S
C3426      C3427   1.411       .  A
C3427      C3428   1.414       .  A
C3427      C3432   1.449       .  S
C3428      C3429   1.414       .  A
C3428      C3444   1.450       .  S
C3429      C3430   1.417       .  A
C3430      C3433   1.452       .  S
C3431      C3434   1.408       .  A
C3431      C3438   1.407       .  A
C3432      N3449   1.157       .  T
C3433      N3451   1.157       .  T
C3434      C3435   1.412       .  A
C3434      C3439   1.452       .  S
C3435      C3436   1.423       .  A
C3435      C3441   1.452       .  S
C3436      C3437   1.422       .  A
C3437      C3438   1.411       .  A
C3437      C3440   1.451       .  S
C3438      C3442   1.451       .  S
C3439      N3446   1.157       .  T
C3440      N3447   1.157       .  T
C3441      N3445   1.158       .  T
C3442      N3448   1.157       .  T
C3443      N3452   1.157       .  T
C3444      N3450   1.157       .  T
C3453      C3454   1.409       .  A
C3453      C3458   1.417       .  A
C3453      C3471   1.452       .  S
C3454      C3459   1.512       .  S
C3454      C3455   1.413       .  A
C3455      C3456   1.420       .  A
C3455      C3460   1.450       .  S
C3456      C3457   1.419       .  A
C3456      C3472   1.449       .  S
C3457      C3458   1.426       .  A
C3458      C3461   1.452       .  S
C3459      C3462   1.411       .  A
C3459      C3466   1.414       .  A
C3460      N3477   1.157       .  T
C3461      N3479   1.158       .  T
C3462      C3463   1.415       .  A
C3462      C3467   1.451       .  S
C3463      C3464   1.420       .  A
C3463      C3469   1.452       .  S
C3464      C3465   1.417       .  A
C3465      C3466   1.419       .  A
C3465      C3468   1.449       .  S
C3466      C3470   1.450       .  S
C3467      N3474   1.157       .  T
C3468      N3475   1.157       .  T
C3469      N3473   1.158       .  T
C3470      N3476   1.157       .  T
C3471      N3480   1.157       .  T
C3472      N3478   1.157       .  T
C3481      C3482   1.410       .  A
C3481      C3486   1.408       .  A
C3481      C3499   1.451       .  S
C3482      C3487   1.489       .  S
C3482      C3483   1.408       .  A
C3483      C3484   1.407       .  A
C3483      C3488   1.451       .  S
C3484      C3485   1.416       .  A
C3484      C3500   1.452       .  S
C3485      C3486   1.415       .  A
C3486      C3489   1.451       .  S
C3487      C3490   1.405       .  A
C3487      C3494   1.406       .  A
C3488      N3505   1.157       .  T
C3489      N3507   1.157       .  T
C3490      C3491   1.409       .  A
C3490      C3495   1.452       .  S
C3491      C3492   1.424       .  A
C3491      C3497   1.450       .  S
C3492      C3493   1.425       .  A
C3493      C3494   1.409       .  A
C3493      C3496   1.453       .  S
C3494      C3498   1.453       .  S
C3495      N3502   1.157       .  T
C3496      N3503   1.158       .  T
C3497      N3501   1.157       .  T
C3498      N3504   1.157       .  T
C3499      N3508   1.157       .  T
C3500      N3506   1.157       .  T
C3509      C3510   1.410       .  A
C3509      C3527   1.453       .  S
C3510      C3515   1.505       .  S
C3510      C3511   1.417       .  A
C3511      C3512   1.420   1_556  A
C3511      C3516   1.449       .  S
C3512      C3528   1.448       .  S
C3513      C3514   1.419       .  A
C3514      C3517   1.453       .  S
C3515      C3518   1.402       .  A
C3515      C3522   1.415       .  A
C3516      N3533   1.157       .  T
C3517      N3535   1.157       .  T
C3518      C3519   1.409       .  A
C3518      C3523   1.455       .  S
C3519      C3520   1.437       .  A
C3519      C3525   1.454       .  S
C3520      C3521   1.417       .  A
C3521      C3522   1.422       .  A
C3521      C3524   1.449       .  S
C3522      C3526   1.449       .  S
C3524      N3531   1.157       .  T
C3525      N3529   1.157       .  T
C3526      N3532   1.157       .  T
C3527      N3536   1.157       .  T
C3528      N3534   1.157       .  T
C3537      C3538   1.414       .  A
C3537      C3542   1.423       .  A
C3537      C3555   1.449       .  S
C3538      C3543   1.508       .  S
C3538      C3539   1.406       .  A
C3539      C3540   1.410       .  A
C3539      C3544   1.453       .  S
C3540      C3541   1.425       .  A
C3540      C3556   1.451       .  S
C3541      C3542   1.419       .  A
C3542      C3545   1.449       .  S
C3543      C3546   1.410       .  A
C3543      C3550   1.409       .  A
C3544      N3561   1.157       .  T
C3545      N3563   1.157       .  T
C3546      C3547   1.418       .  A
C3546      C3551   1.451       .  S
C3547      C3548   1.426       .  A
C3547      C3553   1.451       .  S
C3548      C3549   1.426       .  A
C3549      C3550   1.415       .  A
C3549      C3552   1.452       .  S
C3550      C3554   1.452       .  S
C3551      N3558   1.157       .  T
C3552      N3559   1.158       .  T
C3553      N3557   1.158       .  T
C3554      N3560   1.157       .  T
C3555      N3564   1.157       .  T
C3556      N3562   1.156       .  T
C3565      C3566   1.407       .  A
C3565      C3570   1.404       .  A
C3565      C3583   1.452   1_556  S
C3566      C3567   1.409       .  A
C3567      C3568   1.410       .  A
C3567      C3572   1.450       .  S
C3568      C3569   1.416       .  A
C3568      C3584   1.451       .  S
C3569      C3570   1.418       .  A
C3570      C3573   1.453       .  S
C3571      C3574   1.409       .  A
C3571      C3578   1.410       .  A
C3572      N3589   1.157       .  T
C3573      N3591   1.157       .  T
C3574      C3575   1.407       .  A
C3574      C3579   1.451       .  S
C3575      C3576   1.414       .  A
C3575      C3581   1.452       .  S
C3576      C3577   1.411       .  A
C3577      C3578   1.407       .  A
C3577      C3580   1.451       .  S
C3579      N3586   1.157       .  T
C3580      N3587   1.157       .  T
C3581      N3585   1.157       .  T
C3582      N3588   1.157       .  T
C3584      N3590   1.158       .  T
C3593      C3594   1.419       .  A
C3593      C3598   1.419       .  A
C3593      C3611   1.450   1_556  S
C3594      C3595   1.414       .  A
C3595      C3596   1.412       .  A
C3595      C3600   1.451       .  S
C3596      C3597   1.412       .  A
C3596      C3612   1.445       .  S
C3597      C3598   1.414       .  A
C3598      C3601   1.451       .  S
C3599      C3602   1.413       .  A
C3600      N3617   1.157       .  T
C3601      N3619   1.157       .  T
C3602      C3603   1.416       .  A
C3602      C3607   1.451       .  S
C3603      C3604   1.421       .  A
C3603      C3609   1.452       .  S
C3604      C3605   1.416       .  A
C3606      C3610   1.451   1_554  S
C3607      N3614   1.157       .  T
C3608      N3615   1.158   1_554  T
C3609      N3613   1.157       .  T
C3610      N3616   1.157       .  T
C3612      N3618   1.156       .  T
C3621      C3622   1.408       .  A
C3621      C3626   1.410       .  A
C3621      C3639   1.450       .  S
C3622      C3627   1.488       .  S
C3622      C3623   1.409       .  A
C3623      C3624   1.406       .  A
C3623      C3628   1.452       .  S
C3624      C3625   1.417       .  A
C3624      C3640   1.452       .  S
C3625      C3626   1.415       .  A
C3626      C3629   1.449       .  S
C3627      C3630   1.408       .  A
C3627      C3634   1.407       .  A
C3628      N3645   1.157       .  T
C3629      N3647   1.157       .  T
C3630      C3631   1.406       .  A
C3630      C3635   1.452       .  S
C3631      C3632   1.418       .  A
C3631      C3637   1.452       .  S
C3632      C3633   1.418       .  A
C3633      C3634   1.409       .  A
C3633      C3636   1.452       .  S
C3634      C3638   1.450       .  S
C3635      N3642   1.157       .  T
C3636      N3643   1.158   1_545  T
C3637      N3641   1.158       .  T
C3638      N3644   1.157       .  T
C3639      N3648   1.157       .  T
C3640      N3646   1.157       .  T
C3649      C3650   1.421       .  A
C3649      C3654   1.430       .  A
C3649      C3667   1.448   1_455  S
C3650      C3655   1.516   1_455  S
C3650      C3651   1.406       .  A
C3651      C3652   1.404       .  A
C3651      C3656   1.454       .  S
C3652      C3653   1.429       .  A
C3652      C3668   1.455       .  S
C3653      C3654   1.416       .  A
C3654      C3657   1.447       .  S
C3655      C3658   1.417       .  A
C3655      C3662   1.414       .  A
C3656      N3673   1.157       .  T
C3657      N3675   1.157       .  T
C3658      C3659   1.425       .  A
C3658      C3663   1.448       .  S
C3659      C3660   1.415       .  A
C3659      C3665   1.447       .  S
C3660      C3661   1.418       .  A
C3661      C3662   1.410       .  A
C3661      C3664   1.453       .  S
C3662      C3666   1.454       .  S
C3663      N3670   1.157       .  T
C3664      N3671   1.157       .  T
C3665      N3669   1.157       .  T
C3666      N3672   1.157       .  T
C3667      N3676   1.157       .  T
C3668      N3674   1.158       .  T
C3677      C3678   1.414       .  A
C3677      C3682   1.416       .  A
C3677      C3695   1.451       .  S
C3678      C3683   1.518       .  S
C3678      C3679   1.418       .  A
C3679      C3680   1.420       .  A
C3679      C3684   1.449       .  S
C3680      C3681   1.413       .  A
C3680      C3696   1.450       .  S
C3681      C3682   1.412       .  A
C3682      C3685   1.444       .  S
C3683      C3686   1.418       .  A
C3683      C3690   1.414       .  A
C3684      N3701   1.157       .  T
C3685      N3703   1.155       .  T
C3686      C3687   1.421       .  A
C3686      C3691   1.449       .  S
C3687      C3688   1.413       .  A
C3687      C3693   1.450       .  S
C3688      C3689   1.416       .  A
C3689      C3690   1.416       .  A
C3689      C3692   1.449       .  S
C3690      C3694   1.451       .  S
C3691      N3698   1.157       .  T
C3692      N3699   1.156       .  T
C3693      N3697   1.157       .  T
C3694      N3700   1.157       .  T
C3695      N3704   1.157       .  T
C3696      N3702   1.157       .  T
C3705      C3706   1.403       .  A
C3705      C3710   1.407       .  A
C3705      C3723   1.455       .  S
C3706      C3711   1.499       .  S
C3706      C3707   1.412       .  A
C3707      C3708   1.419       .  A
C3707      C3712   1.449       .  S
C3708      C3709   1.419       .  A
C3708      C3724   1.449       .  S
C3709      C3710   1.429       .  A
C3710      C3713   1.451       .  S
C3711      C3714   1.409       .  A
C3711      C3718   1.410       .  A
C3712      N3729   1.157       .  T
C3713      N3731   1.156       .  T
C3714      C3715   1.411       .  A
C3714      C3719   1.452       .  S
C3715      C3716   1.422       .  A
C3715      C3721   1.452       .  S
C3716      C3717   1.420       .  A
C3717      C3718   1.415       .  A
C3717      C3720   1.451       .  S
C3718      C3722   1.451       .  S
C3719      N3726   1.157       .  T
C3720      N3727   1.158       .  T
C3721      N3725   1.157       .  T
C3722      N3728   1.157       .  T
C3723      N3732   1.157       .  T
C3724      N3730   1.157       .  T
C3733      C3734   1.407       .  A
C3733      C3738   1.408       .  A
C3733      C3751   1.453       .  S
C3734      C3739   1.489       .  S
C3734      C3735   1.406       .  A
C3735      C3736   1.410       .  A
C3735      C3740   1.451       .  S
C3736      C3737   1.422       .  A
C3736      C3752   1.452       .  S
C3737      C3738   1.421       .  A
C3738      C3741   1.450       .  S
C3739      C3742   1.407       .  A
C3739      C3746   1.409       .  A
C3740      N3757   1.157       .  T
C3741      N3759   1.157       .  T
C3742      C3743   1.408       .  A
C3742      C3747   1.451       .  S
C3743      C3744   1.417       .  A
C3743      C3749   1.452       .  S
C3744      C3745   1.416       .  A
C3745      C3746   1.408       .  A
C3746      C3750   1.452       .  S
C3747      N3754   1.157       .  T
C3748      N3755   1.157       .  T
C3749      N3753   1.157       .  T
C3750      N3756   1.157       .  T
C3751      N3760   1.157       .  T
C3752      N3758   1.157       .  T
C3761      C3762   1.409       .  A
C3761      C3766   1.414       .  A
C3761      C3779   1.451       .  S
C3762      C3767   1.497       .  S
C3762      C3763   1.407       .  A
C3763      C3764   1.409       .  A
C3763      C3768   1.452       .  S
C3764      C3765   1.423       .  A
C3764      C3780   1.452       .  S
C3765      C3766   1.419       .  A
C3766      C3769   1.448       .  S
C3767      C3770   1.412       .  A
C3767      C3774   1.408       .  A
C3768      N3785   1.157       .  T
C3769      N3787   1.156       .  T
C3770      C3771   1.412       .  A
C3770      C3775   1.450       .  S
C3771      C3772   1.414       .  A
C3771      C3777   1.450       .  S
C3772      C3773   1.421       .  A
C3773      C3774   1.411       .  A
C3774      C3778   1.451       .  S
C3775      N3782   1.157       .  T
C3776      N3783   1.158       .  T
C3777      N3781   1.157       .  T
C3778      N3784   1.157       .  T
C3779      N3788   1.157       .  T
C3780      N3786   1.158       .  T
C3789      C3790   1.410       .  A
C3789      C3794   1.409       .  A
C3789      C3807   1.452       .  S
C3790      C3795   1.496       .  S
C3790      C3791   1.410       .  A
C3791      C3792   1.413       .  A
C3791      C3796   1.449       .  S
C3792      C3793   1.413       .  A
C3792      C3808   1.450       .  S
C3793      C3794   1.417       .  A
C3794      C3797   1.451       .  S
C3795      C3798   1.408       .  A
C3795      C3802   1.409       .  A
C3796      N3813   1.157       .  T
C3797      N3815   1.157       .  T
C3798      C3799   1.411       .  A
C3798      C3803   1.451       .  S
C3799      C3800   1.421       .  A
C3799      C3805   1.452       .  S
C3800      C3801   1.419       .  A
C3801      C3802   1.411       .  A
C3801      C3804   1.451       .  S
C3802      C3806   1.451       .  S
C3803      N3810   1.157       .  T
C3804      N3811   1.157       .  T
C3805      N3809   1.158       .  T
C3806      N3812   1.157       .  T
C3807      N3816   1.157       .  T
C3808      N3814   1.157       .  T
