geometry optimzed in LAMMPS
_audit_creation_date              2020-12-01 
_audit_creation_method            'lammps2cif' 
_symmetry_space_group_name_H-M    'P1' 
_symmetry_Int_Tables_number       1 
_symmetry_cell_setting            triclinic 
loop_ 
_symmetry_equiv_pos_as_xyz 
  x,y,z 
_cell_length_a                    28.60650865 
_cell_length_b                    28.606167550451996 
_cell_length_c                    28.60669600428059 
_cell_angle_alpha                 90.00074965431291 
_cell_angle_beta                  90.00064843240251 
_cell_angle_gamma                 90.00032208908402 
loop_ 
_atom_site_label 
_atom_site_type_symbol 
_atom_site_fract_x 
_atom_site_fract_y 
_atom_site_fract_z 
_atom_site_charge 
O1          O  0.23868610  0.74999359  0.59585127    -0.80100
C2          C  0.07485058  0.77781249  0.49063741     0.99300
O3          O  0.08867522  0.73828099  0.50570393    -0.69200
O4          O  0.17546548  0.72044415  0.47726508    -0.72800
Al5        Al  0.14705261  0.72026527  0.53717575     1.49000
C6          C  0.21935680  0.72283263  0.47361976     0.94500
O7          O  0.21670079  0.83988768  0.50307424    -0.79000
O8          O  0.14850422  0.83156669  0.62355260    -0.72600
Al9        Al  0.22479114  0.79368968  0.54949528     1.90100
O10         O  0.15558523  0.87376805  0.53524933    -0.71600
O11         O  0.08044291  0.77930782  0.59829557    -0.71500
O12         O  0.09051270  0.81512035  0.50764596    -0.77100
O13         O  0.11883019  0.71304180  0.59660679    -0.75300
O14         O  0.16457586  0.77859262  0.54982066    -1.11500
O15         O  0.20239043  0.69045167  0.56402156    -0.70700
C16         C  0.23562493  0.70702638  0.58820717     1.00100
C17         C  0.18993679  0.87460271  0.50700064     0.96400
Al18       Al  0.12210213  0.82165049  0.56474998     1.55600
O19         O  0.24260602  0.74972599  0.50016385    -0.75300
C20         C  0.08955217  0.73957767  0.61579387     1.00600
C21         C  0.19033578  0.84056527  0.63220657     0.95500
O22         O  0.22114129  0.83833933  0.60046464    -0.80600
O23         O  0.28651525  0.86197538  0.75567367    -0.80100
C24         C  0.31434573  0.96719796  0.91950338     0.99300
O25         O  0.27481350  0.95213163  0.90567944    -0.69200
O26         O  0.25697386  0.98056839  0.81888935    -0.72800
Al27       Al  0.25679367  0.92065776  0.84730384     1.49000
C28         C  0.25935812  0.98421131  0.77499792     0.94500
O29         O  0.37641134  0.95475434  0.77765160    -0.79000
O30         O  0.36808912  0.83427547  0.84585118    -0.72600
Al31       Al  0.33021233  0.90833302  0.76956419     1.90100
O32         O  0.41029329  0.92257851  0.83876613    -0.71600
O33         O  0.31583615  0.85953798  0.91391322    -0.71500
O34         O  0.35165187  0.95018767  0.90384024    -0.77100
O35         O  0.24956944  0.86122736  0.87552759    -0.75300
O36         O  0.31511868  0.90801044  0.82977951    -1.11500
O37         O  0.22697674  0.89380971  0.79196791    -0.70700
C38         C  0.24354894  0.86962100  0.75873495     1.00100
C39         C  0.41112744  0.95082697  0.80441417     0.96400
Al40       Al  0.35817742  0.89308085  0.87225195     1.55600
O41         O  0.28624870  0.95766530  0.75174846    -0.75300
C42         C  0.27610581  0.84204003  0.90480471     1.00600
C43         C  0.37708603  0.82562046  0.80401961     0.95500
O44         O  0.37486052  0.85736283  0.77321430    -0.80600
O45         O  0.39850483  0.70215664  0.70783671    -0.80100
C46         C  0.50371787  0.53832065  0.68001491     0.99300
O47         O  0.48865288  0.55214585  0.71954646    -0.69200
O48         O  0.51709156  0.63893649  0.73738724    -0.72800
Al49       Al  0.45718064  0.61052269  0.73756395     1.49000
C50         C  0.52073594  0.68282858  0.73500385     0.94500
O51         O  0.49128693  0.68017134  0.61794793    -0.79000
O52         O  0.37080302  0.61197744  0.62626384    -0.72600
Al53       Al  0.44486351  0.68826269  0.66414337     1.90100
O54         O  0.45910793  0.61905714  0.58406500    -0.71600
O55         O  0.39605725  0.54391409  0.67851972    -0.71500
O56         O  0.48670764  0.55398200  0.64270848    -0.77100
O57         O  0.39775061  0.58229978  0.74478628    -0.75300
O58         O  0.44453604  0.62804658  0.67923824    -1.11500
O59         O  0.43033252  0.66585980  0.76737771    -0.70700
C60         C  0.40614565  0.69909354  0.75080375     1.00100
C61         C  0.48735927  0.65340783  0.58323209     0.96400
Al62       Al  0.42960496  0.58557333  0.63617958     1.55600
O63         O  0.49419307  0.70607858  0.70811067    -0.75300
C64         C  0.37856109  0.55302336  0.71825025     1.00600
C65         C  0.36215200  0.65380960  0.61726467     0.95500
O66         O  0.39389634  0.68461382  0.61949107    -0.80600
O67         O  0.78651828  0.59110183  0.20690974    -0.80100
C68         C  0.81433736  0.48588307  0.04307709     0.99300
O69         O  0.77480610  0.50094986  0.05690152    -0.69200
O70         O  0.75696859  0.47251206  0.14369193    -0.72800
Al71       Al  0.75679028  0.53242329  0.11527795     1.49000
C72         C  0.75935653  0.46886824  0.18758328     0.94500
O73         O  0.87641090  0.49832121  0.18492637    -0.79000
O74         O  0.86809073  0.61880083  0.11672878    -0.72600
Al75       Al  0.83021378  0.54474394  0.19301608     1.90100
O76         O  0.91029086  0.53049628  0.12381113    -0.71600
O77         O  0.81583271  0.59354271  0.04866836    -0.71500
O78         O  0.85164459  0.50289200  0.05873945    -0.77100
O79         O  0.74956746  0.59185468  0.08705504    -0.75300
O80         O  0.81511693  0.54506827  0.13280120    -1.11500
O81         O  0.72697706  0.55927106  0.17061462    -0.70700
C82         C  0.74355139  0.58345764  0.20384875     1.00100
C83         C  0.91112550  0.50224721  0.15816246     0.96400
Al84       Al  0.85817442  0.55999705  0.09032779     1.55600
O85         O  0.78625017  0.49541283  0.21083159    -0.75300
C86         C  0.77610339  0.61104193  0.05777778     1.00600
C87         C  0.87708980  0.62745542  0.15855992     0.95500
O88         O  0.87486339  0.59571330  0.18936567    -0.80600
O89         O  0.73868411  0.70308164  0.36673021    -0.80100
C90         C  0.57485286  0.67525859  0.47194679     0.99300
O91         O  0.58867781  0.71479110  0.45688242    -0.69200
O92         O  0.67546857  0.73263042  0.48531883    -0.72800
Al93       Al  0.64705327  0.73280915  0.42540894     1.49000
C94         C  0.71936018  0.73024621  0.48896229     0.94500
O95         O  0.71670171  0.61318960  0.45950999    -0.79000
O96         O  0.64850486  0.62150965  0.33902869    -0.72600
Al97       Al  0.72479164  0.65938674  0.41308784     1.90100
O98         O  0.65558722  0.57930713  0.42733216    -0.71600
O99         O  0.58044282  0.67376625  0.36428639    -0.71500
O100        O  0.59051353  0.63795178  0.45493521    -0.77100
O101        O  0.61882832  0.74003354  0.36597991    -0.75300
O102        O  0.66457627  0.67448255  0.41276243    -1.11500
O103        O  0.70238972  0.76262360  0.39856039    -0.70700
C104        C  0.73562258  0.74604921  0.37437279     1.00100
C105        C  0.68993831  0.57847359  0.45558258     0.96400
Al106      Al  0.62210289  0.63142396  0.39783157     1.55600
O107        O  0.74260908  0.70335339  0.46241804    -0.75300
C108        C  0.58955121  0.71349781  0.34679101     1.00600
C109        C  0.69033653  0.61251048  0.33037610     0.95500
O110        O  0.72114102  0.61473509  0.36211982    -0.80600
O111        O  0.89850469  0.75092041  0.25473971    -0.80100
C112        C  0.00372086  0.91475468  0.28257229     0.99300
O113        O  0.98865372  0.90093169  0.24304040    -0.69200
O114        O  0.01709294  0.81414179  0.22519859    -0.72800
Al115      Al  0.95718195  0.84255479  0.22501995     1.49000
C116        C  0.02073816  0.77024974  0.22758201     0.94500
O117        O  0.99128286  0.77289911  0.34463583    -0.79000
O118        O  0.87080300  0.84109719  0.33631625    -0.72600
Al119      Al  0.94486159  0.76481145  0.29843656     1.90100
O120        O  0.95910649  0.83401371  0.37851875    -0.71600
O121        O  0.89606153  0.90916212  0.28406446    -0.71500
O122        O  0.98671178  0.89909063  0.31987817    -0.77100
O123        O  0.89775109  0.87077743  0.21779720    -0.75300
O124        O  0.94453650  0.82502825  0.28334448    -1.11500
O125        O  0.93033589  0.78721815  0.19520211    -0.70700
C126        C  0.90614874  0.75398348  0.21177361     1.00100
C127        C  0.98735560  0.79966191  0.37935194     0.96400
Al128      Al  0.92960662  0.86750021  0.32640408     1.55600
O129        O  0.99419369  0.74699820  0.25447222    -0.75300
C130        C  0.87856342  0.90005399  0.24433425     1.00600
C131        C  0.86214910  0.79926455  0.34531199     0.95500
O132        O  0.89389184  0.76845905  0.34308476    -0.80600
O133        O  0.62762782  0.20215554  0.75474453    -0.80100
C134        C  0.52241227  0.03832044  0.78256265     0.99300
O135        O  0.53747893  0.05214504  0.74303188    -0.69200
O136        O  0.50904035  0.13893643  0.72519250    -0.72800
Al137      Al  0.56895133  0.11052210  0.72501630     1.49000
C138        C  0.50539606  0.18282867  0.72757916     0.94500
O139        O  0.53484672  0.18017387  0.84463495    -0.79000
O140        O  0.65532619  0.11197538  0.83631825    -0.72600
Al141      Al  0.58126974  0.18826284  0.79843861     1.90100
O142        O  0.56702131  0.11905787  0.87851591    -0.71600
O143        O  0.63007107  0.04391310  0.78406055    -0.71500
O144        O  0.53942034  0.05398356  0.81986991    -0.77100
O145        O  0.62838233  0.08229919  0.71779508    -0.75300
O146        O  0.58159508  0.12804662  0.78334272    -1.11500
O147        O  0.59579866  0.16585892  0.69520333    -0.70700
C148        C  0.61998509  0.19909326  0.71177778     1.00100
C149        C  0.53877243  0.15341015  0.87934977     0.96400
Al150      Al  0.59652377  0.08557331  0.82640083     1.55600
O151        O  0.53193954  0.20607798  0.75447322    -0.75300
C152        C  0.64757009  0.05302239  0.74433152     1.00600
C153        C  0.66398007  0.15380735  0.84531715     0.95500
O154        O  0.63223802  0.18461351  0.84308944    -0.80600
O155        O  0.78744844  0.24998439  0.86673182    -0.80100
C156        C  0.95128011  0.27781258  0.97195070     0.99300
O157        O  0.93745659  0.23828028  0.95688340    -0.69200
O158        O  0.85066659  0.22044069  0.98532058    -0.72800
Al159      Al  0.87908008  0.22026111  0.92541045     1.49000
C160        C  0.80677507  0.22282611  0.98896493     0.94500
O161        O  0.80942735  0.33988049  0.95951006    -0.79000
O162        O  0.87762554  0.33155933  0.83903187    -0.72600
Al163      Al  0.80133951  0.29368137  0.91308888     1.90100
O164        O  0.87054202  0.37376284  0.92733500    -0.71600
O165        O  0.94568872  0.27930488  0.86429193    -0.71500
O166        O  0.93561700  0.31511954  0.95494130    -0.77100
O167        O  0.90730307  0.21303744  0.86598005    -0.75300
O168        O  0.86155525  0.27858725  0.91276494    -1.11500
O169        O  0.82374316  0.19044434  0.89856363    -0.70700
C170        C  0.79050932  0.20701741  0.87437655     1.00100
C171        C  0.83618997  0.37459679  0.95558329     0.96400
Al172      Al  0.90402765  0.32164643  0.89783588     1.55600
O173        O  0.78352497  0.24971728  0.96242012    -0.75300
C174        C  0.93658012  0.23957444  0.84679316     1.00600
C175        C  0.83579346  0.34055617  0.83037752     0.95500
O176        O  0.80498845  0.33833047  0.86212001    -0.80600
O177        O  0.73960972  0.36197410  0.70691304    -0.80100
C178        C  0.71178924  0.46718969  0.54307954     0.99300
O179        O  0.75132092  0.45212471  0.55690544    -0.69200
O180        O  0.76916003  0.48056293  0.64369580    -0.72800
Al181      Al  0.76933796  0.42065148  0.61528159     1.49000
C182        C  0.76677536  0.48420711  0.68758700     0.94500
O183        O  0.64971967  0.45475636  0.68492713    -0.79000
O184        O  0.65803944  0.33427257  0.61673207    -0.72600
Al185      Al  0.69591568  0.40833300  0.69301859     1.90100
O186        O  0.61583797  0.42257671  0.62381332    -0.71600
O187        O  0.71029546  0.35952940  0.54867124    -0.71500
O188        O  0.67448234  0.45017972  0.55874081    -0.77100
O189        O  0.77656116  0.36122068  0.58705849    -0.75300
O190        O  0.71101179  0.40800647  0.63280378    -1.11500
O191        O  0.79915132  0.39380289  0.67061852    -0.70700
C192        C  0.78257693  0.36961591  0.70385171     1.00100
C193        C  0.61500398  0.45082782  0.65816393     0.96400
Al194      Al  0.66795390  0.39307560  0.59033012     1.55600
O195        O  0.73988180  0.45766345  0.71083568    -0.75300
C196        C  0.75002553  0.34203226  0.55778089     1.00600
C197        C  0.64903978  0.32562057  0.65856339     0.95500
O198        O  0.65126430  0.35736491  0.68936765    -0.80600
O199        O  0.28745483  0.20309534  0.09585879    -0.80100
C200        C  0.45128173  0.17526542  0.99063792     0.99300
O201        O  0.43745970  0.21479830  0.00570389    -0.69200
O202        O  0.35066892  0.23263940  0.97726906    -0.72800
Al203      Al  0.37908524  0.23281843  0.03717860     1.49000
C204        C  0.30677730  0.23025475  0.97362591     0.94500
O205        O  0.30943042  0.11319860  0.00307921    -0.79000
O206        O  0.37763177  0.12151962  0.12355819    -0.72600
Al207      Al  0.30134414  0.15939815  0.04950128     1.90100
O208        O  0.37054571  0.07931646  0.03525402    -0.71600
O209        O  0.44569467  0.17377428  0.09829830    -0.71500
O210        O  0.43561972  0.13795914  0.00764906    -0.77100
O211        O  0.40731134  0.24004249  0.09660799    -0.75300
O212        O  0.36156004  0.17449229  0.04982482    -1.11500
O213        O  0.32375004  0.26263546  0.06402744    -0.70700
C214        C  0.29051690  0.24606250  0.08821515     1.00100
C215        C  0.33619423  0.07848281  0.00700405     0.96400
Al216      Al  0.40403221  0.13143282  0.06475404     1.55600
O217        O  0.28352791  0.20336325  0.00017062    -0.75300
C218        C  0.43658761  0.21350556  0.11579584     1.00600
C219        C  0.33580008  0.11252241  0.13221255     0.95500
O220        O  0.30499412  0.11474864  0.10047034    -0.80600
O221        O  0.12763591  0.25092812  0.20784759    -0.80100
C222        C  0.02241237  0.41475456  0.18001564     0.99300
O223        O  0.03747925  0.40093355  0.21954792    -0.69200
O224        O  0.00904448  0.31414197  0.23739127    -0.72800
Al225      Al  0.06895422  0.34255908  0.23756842     1.49000
C226        C  0.00540159  0.27024956  0.23500791     0.94500
O227        O  0.03485484  0.27289873  0.11795185    -0.79000
O228        O  0.15533236  0.34110422  0.12627049    -0.72600
Al229      Al  0.08127763  0.26481496  0.16415117     1.90100
O230        O  0.06702782  0.33401475  0.08406920    -0.71600
O231        O  0.13007199  0.40916819  0.17852317    -0.71500
O232        O  0.03942216  0.39909065  0.14271013    -0.77100
O233        O  0.12838376  0.37078553  0.24479061    -0.75300
O234        O  0.08160005  0.32503201  0.17924351    -1.11500
O235        O  0.09580351  0.28722493  0.26738584    -0.70700
C236        C  0.11999203  0.25399132  0.25081386     1.00100
C237        C  0.03877901  0.29966207  0.08323607     0.96400
Al238      Al  0.09652781  0.36750370  0.13618365     1.55600
O239        O  0.03194665  0.24699940  0.20811672    -0.75300
C240        C  0.14757069  0.40006173  0.21825330     1.00600
C241        C  0.16398816  0.29927212  0.11727459     0.95500
O242        O  0.13224710  0.26846458  0.11950231    -0.80600
O243        O  0.23961842  0.09110684  0.25567616    -0.80100
C244        C  0.21179080  0.98588876  0.41950641     0.99300
O245        O  0.25132302  0.00095501  0.40568379    -0.69200
O246        O  0.26916365  0.97251771  0.31889364    -0.72800
Al247      Al  0.26934203  0.03242895  0.34730855     1.49000
C248        C  0.26677810  0.96887306  0.27500220     0.94500
O249        O  0.14972207  0.99832730  0.27765577    -0.79000
O250        O  0.15804463  0.11880798  0.34585608    -0.72600
Al251      Al  0.19592147  0.04474953  0.26956814     1.90100
O252        O  0.11584153  0.03050402  0.33877046    -0.71600
O253        O  0.21029896  0.09354875  0.41391799    -0.71500
O254        O  0.17448473  0.00289832  0.40384315    -0.77100
O255        O  0.27656522  0.09186038  0.37553319    -0.75300
O256        O  0.21101633  0.04507445  0.32978359    -1.11500
O257        O  0.29915807  0.05927684  0.29197295    -0.70700
C258        C  0.28258507  0.08346345  0.25873879     1.00100
C259        C  0.11500698  0.00225352  0.30441940     0.96400
Al260      Al  0.16795781  0.06000392  0.37225602     1.55600
O261        O  0.23988541  0.99541725  0.25175296    -0.75300
C262        C  0.25002888  0.11104772  0.40481019     1.00600
C263        C  0.14904752  0.12746275  0.30402474     0.95500
O264        O  0.15127329  0.09572024  0.27321841    -0.80600
O265        O  0.13224002  0.18462463  0.61950025    -0.80100
C266        C  0.02241658  0.03832714  0.68001466     0.99300
O267        O  0.03942483  0.05399161  0.64270853    -0.69200
O268        O  0.06702810  0.11906893  0.58406776    -0.72800
Al269      Al  0.09652904  0.08558285  0.63618199     1.49000
C270        C  0.03877789  0.15341984  0.58323493     0.94500
O271        O  0.03193994  0.20608319  0.70811538    -0.79000
O272        O  0.09580060  0.16586447  0.76738369    -0.72600
Al273      Al  0.08127137  0.18827097  0.66414972     1.90100
O274        O  0.00904335  0.13893909  0.73738951    -0.71600
O275        O  0.12838666  0.08230592  0.74478809    -0.71500
O276        O  0.03748405  0.05215012  0.71954644    -0.77100
O277        O  0.13007530  0.04392113  0.67852093    -0.75300
O278        O  0.08159869  0.12805426  0.67924191    -1.11500
O279        O  0.15533165  0.11198739  0.62626965    -0.70700
C280        C  0.16398374  0.15382035  0.61727344     1.00100
C281        C  0.00539712  0.18283102  0.73500650     0.96400
Al282      Al  0.06895499  0.11052744  0.73756659     1.55600
O283        O  0.03484937  0.18018176  0.61795167    -0.75300
C284        C  0.14757390  0.05302933  0.71825104     1.00600
C285        C  0.11998642  0.19909980  0.75081140     0.95500
O286        O  0.12762888  0.20216338  0.70784520    -0.80600
O287        O  0.15126806  0.35737067  0.77322086    -0.80100
C288        C  0.21179501  0.46719802  0.91951014     0.99300
O289        O  0.17448758  0.45018932  0.90384774    -0.69200
O290        O  0.11584143  0.42258548  0.83877590    -0.72800
Al291      Al  0.16795790  0.39308461  0.87225895     1.49000
C292        C  0.11500698  0.45083521  0.80442522     0.94500
O293        O  0.23988249  0.45767059  0.75175579    -0.79000
O294        O  0.29915469  0.39381143  0.79197203    -0.72600
Al295      Al  0.19591824  0.40833961  0.76957095     1.90100
O296        O  0.26916359  0.48057017  0.81889597    -0.71600
O297        O  0.27656472  0.36122683  0.87553111    -0.71500
O298        O  0.25132618  0.45213119  0.90568564    -0.77100
O299        O  0.21029972  0.35953869  0.91391824    -0.75300
O300        O  0.21101533  0.40801392  0.82978574    -1.11500
O301        O  0.15804214  0.33428137  0.84585712    -0.70700
C302        C  0.14904265  0.32562780  0.80402587     1.00100
C303        C  0.26677644  0.48421441  0.77500465     0.96400
Al304      Al  0.26934190  0.42065856  0.84730901     1.55600
O305        O  0.14972172  0.45476250  0.77766188    -0.75300
C306        C  0.25002913  0.34203991  0.90480876     1.00600
C307        C  0.28258007  0.36962531  0.75873770     0.95500
O308        O  0.23961303  0.36198166  0.75567649    -0.80600
O309        O  0.30499212  0.33835130  0.60046574    -0.80100
C310        C  0.45128144  0.27782537  0.49064336     0.99300
O311        O  0.43562088  0.31513256  0.50765435    -0.69200
O312        O  0.37054717  0.37377765  0.53525598    -0.72800
Al313      Al  0.40403069  0.32166082  0.56475723     1.49000
C314        C  0.33619700  0.37461099  0.50700471     0.94500
O315        O  0.28352519  0.24973161  0.50016852    -0.79000
O316        O  0.32374288  0.19046230  0.56402777    -0.72600
Al317      Al  0.30134206  0.29369891  0.54949840     1.90100
O318        O  0.35066620  0.22045428  0.47726969    -0.71600
O319        O  0.40730371  0.21305148  0.59660957    -0.71500
O320        O  0.43745610  0.23829311  0.50570783    -0.77100
O321        O  0.44568993  0.27931839  0.59830319    -0.75300
O322        O  0.36155728  0.27860256  0.54982557    -1.11500
O323        O  0.37762752  0.33157523  0.62355916    -0.70700
C324        C  0.33579585  0.34057507  0.63221054     1.00100
C325        C  0.30677467  0.22283816  0.47362528     0.96400
Al326      Al  0.37908007  0.22027580  0.53718007     1.55600
O327        O  0.30943383  0.33989505  0.50307597    -0.75300
C328        C  0.43658130  0.23958682  0.61579861     1.00600
C329        C  0.29050982  0.20703722  0.58821442     0.95500
O330        O  0.28744804  0.25000494  0.59585625    -0.80600
O331        O  0.65127204  0.09571572  0.18937579    -0.80100
C332        C  0.71178800  0.98588705  0.04308426     0.99300
O333        O  0.67448165  0.00289633  0.05874771    -0.69200
O334        O  0.61584026  0.03050311  0.12382269    -0.72800
Al335      Al  0.66795564  0.06000200  0.09033732     1.49000
C336        C  0.61500659  0.00225333  0.15817347     0.94500
O337        O  0.73988613  0.99541488  0.21083842    -0.79000
O338        O  0.79915642  0.05927330  0.17062024    -0.72600
Al339      Al  0.69592130  0.04474659  0.19302434     1.90100
O340        O  0.76916135  0.97251455  0.14369683    -0.71600
O341        O  0.77656287  0.09185737  0.08706175    -0.71500
O342        O  0.75132012  0.00095344  0.05690795    -0.77100
O343        O  0.71029605  0.09354628  0.04867637    -0.75300
O344        O  0.71101483  0.04507169  0.13280905    -1.11500
O345        O  0.65804383  0.11880618  0.11673986    -0.70700
C346        C  0.64904686  0.12745932  0.15857154     1.00100
C347        C  0.76677738  0.96887032  0.18758803     0.96400
Al348      Al  0.76933993  0.03242609  0.11528402     1.55600
O349        O  0.64972330  0.99832459  0.18493524    -0.75300
C350        C  0.75002635  0.11104445  0.05778460     1.00600
C351        C  0.78258370  0.08346040  0.20385422     0.95500
O352        O  0.73961724  0.09110458  0.20691633    -0.80600
O353        O  0.80499355  0.11473962  0.36212451    -0.80100
C354        C  0.95128480  0.17526857  0.47194869     0.99300
O355        O  0.93562293  0.13796032  0.45494051    -0.69200
O356        O  0.87055037  0.07931234  0.42733827    -0.72800
Al357      Al  0.90403302  0.13142963  0.39783692     1.49000
C358        C  0.83619939  0.07847775  0.45558772     0.94500
O359        O  0.78352960  0.20335470  0.46242410    -0.79000
O360        O  0.82374436  0.26262771  0.39856482    -0.72600
Al361      Al  0.80134422  0.15939011  0.41309310     1.90100
O362        O  0.85067052  0.23263677  0.48532125    -0.71600
O363        O  0.90730425  0.24003775  0.36597885    -0.71500
O364        O  0.93746023  0.21479978  0.45688160    -0.77100
O365        O  0.94569187  0.17377190  0.36429043    -0.75300
O366        O  0.86155943  0.17448755  0.41276634    -1.11500
O367        O  0.87763009  0.12151304  0.33903494    -0.70700
C368        C  0.83579835  0.11251399  0.33038191     1.00100
C369        C  0.80677921  0.23024871  0.48896705     0.96400
Al370      Al  0.87908258  0.23281499  0.42541024     1.55600
O371        O  0.80943573  0.11319307  0.45951476    -0.75300
C372        C  0.93658256  0.21350186  0.34679201     1.00600
C373        C  0.79050948  0.24605249  0.37437988     0.95500
O374        O  0.78744843  0.20308518  0.36673645    -0.80600
O375        O  0.63223678  0.26846628  0.34310163    -0.80100
C376        C  0.52241922  0.41476021  0.28257523     0.99300
O377        O  0.53942897  0.39909906  0.31988202    -0.69200
O378        O  0.56702772  0.33402411  0.37852605    -0.72800
Al379      Al  0.59653104  0.36750708  0.32641135     1.49000
C380        C  0.53877522  0.29967438  0.37935903     0.94500
O381        O  0.53194119  0.24700234  0.25448057    -0.79000
O382        O  0.59580313  0.28721968  0.19521449    -0.72600
Al383      Al  0.58127022  0.26481787  0.29844865     1.90100
O384        O  0.50904420  0.31414465  0.22520364    -0.71600
O385        O  0.62838596  0.37077924  0.21780503    -0.71500
O386        O  0.53748424  0.40093447  0.24304396    -0.77100
O387        O  0.63007926  0.40916565  0.28407114    -0.75300
O388        O  0.58159936  0.32503373  0.28335309    -1.11500
O389        O  0.65533220  0.34110194  0.33632690    -0.70700
C390        C  0.66398214  0.29926954  0.34532685     1.00100
C391        C  0.50539922  0.27025256  0.22758678     0.96400
Al392      Al  0.56895560  0.34255730  0.22502725     1.55600
O393        O  0.53484631  0.27291110  0.34464312    -0.75300
C394        C  0.64757515  0.40005643  0.24434059     1.00600
C395        C  0.61998912  0.25398584  0.21178915     0.95500
O396        O  0.62762908  0.25092248  0.25475631    -0.80600
O397        O  0.22114740  0.61474899  0.10046461    -0.80100
C398        C  0.07485427  0.67526864  0.99063903     0.99300
O399        O  0.09051713  0.63796161  0.00764795    -0.69200
O400        O  0.15559254  0.57931808  0.03525244    -0.72800
Al401      Al  0.12210755  0.63143417  0.06475254     1.49000
C402        C  0.18994350  0.57848446  0.00700280     0.94500
O403        O  0.24260888  0.70336438  0.00016611    -0.79000
O404        O  0.20239216  0.76263572  0.06402492    -0.72600
Al405      Al  0.22479523  0.65939913  0.04949670     1.90100
O406        O  0.17546675  0.73264145  0.97726807    -0.71600
O407        O  0.11883283  0.74004254  0.09660978    -0.71500
O408        O  0.08867769  0.71480098  0.00570669    -0.77100
O409        O  0.08044705  0.67377522  0.09829768    -0.75300
O410        O  0.16457956  0.67449350  0.04982287    -1.11500
O411        O  0.14851120  0.62152107  0.12355555    -0.70700
C412        C  0.19034353  0.61252365  0.13220815     1.00100
C413        C  0.21935817  0.73025618  0.97362252     0.96400
Al414      Al  0.14705463  0.73281978  0.03717878     1.55600
O415        O  0.21670559  0.61320107  0.00307482    -0.75300
C416        C  0.08955595  0.71350545  0.11579670     1.00600
C417        C  0.23562655  0.74606193  0.08821072     0.95500
O418        O  0.23868787  0.70309490  0.09585428    -0.80600
O419        O  0.39389886  0.76846749  0.11949471    -0.80100
C420        C  0.50372099  0.91476116  0.18002407     0.99300
O421        O  0.48671330  0.89909840  0.14271648    -0.69200
O422        O  0.45911337  0.83402432  0.08406987    -0.72800
Al423      Al  0.42961038  0.86750813  0.13618499     1.49000
C424        C  0.48736320  0.79967303  0.08323620     0.94500
O425        O  0.49419624  0.74700388  0.20811256    -0.79000
O426        O  0.43033544  0.78722149  0.26738123    -0.72600
Al427      Al  0.44486652  0.76481866  0.16414627     1.90100
O428        O  0.51709367  0.81414574  0.23739369    -0.71600
O429        O  0.39775087  0.87078083  0.24479041    -0.71500
O430        O  0.48865388  0.90093654  0.21955465    -0.77100
O431        O  0.39606235  0.90916768  0.17852533    -0.75300
O432        O  0.44453959  0.82503474  0.17924279    -1.11500
O433        O  0.37080873  0.84110497  0.12626727    -0.70700
C434        C  0.36215606  0.79927294  0.11726771     1.00100
C435        C  0.52073845  0.77025371  0.23500722     0.96400
Al436      Al  0.45718229  0.84255892  0.23756946     1.55600
O437        O  0.49129004  0.77290937  0.11795096    -0.75300
C438        C  0.37856334  0.90005814  0.21825451     1.00600
C439        C  0.40615003  0.75398689  0.25080604     0.95500
O440        O  0.39850798  0.75092463  0.20783925    -0.80600
O441        O  0.37487440  0.59571391  0.27321797    -0.80100
C442        C  0.31434728  0.48589440  0.41950735     0.99300
O443        O  0.35165436  0.50290340  0.40384620    -0.69200
O444        O  0.41029916  0.53050484  0.33877360    -0.72800
Al445      Al  0.35818321  0.56000669  0.37225590     1.49000
C446        C  0.41113309  0.50225254  0.30442408     0.94500
O447        O  0.28625526  0.49541654  0.25175131    -0.79000
O448        O  0.22698680  0.55927933  0.29196700    -0.72600
Al449      Al  0.33022222  0.54474658  0.26956770     1.90100
O450        O  0.25697653  0.47251934  0.31889165    -0.71600
O451        O  0.24957657  0.59186277  0.37552632    -0.71500
O452        O  0.27481573  0.50095927  0.40568122    -0.77100
O453        O  0.31584185  0.59355390  0.41391415    -0.75300
O454        O  0.31512546  0.54507518  0.32978229    -1.11500
O455        O  0.36809787  0.61880881  0.34585264    -0.70700
C456        C  0.37709813  0.62745925  0.30402151     1.00100
C457        C  0.25936082  0.46887448  0.27500047     0.96400
Al458      Al  0.25679922  0.53243136  0.34730445     1.55600
O459        O  0.37641724  0.49832269  0.27766121    -0.75300
C460        C  0.27611185  0.61105116  0.40480405     1.00600
C461        C  0.24356179  0.58346519  0.25873344     0.95500
O462        O  0.28652922  0.59110578  0.25567150    -0.80600
O463        O  0.72114263  0.83833739  0.86211999    -0.80100
C464        C  0.57485413  0.77781899  0.97194848     0.99300
O465        O  0.59051590  0.81512542  0.95493762    -0.69200
O466        O  0.65558982  0.87376847  0.92733358    -0.72800
Al467      Al  0.62210415  0.82165175  0.89783332     1.49000
C468        C  0.68994052  0.87460211  0.95558430     0.94500
O469        O  0.74260778  0.74972191  0.96241927    -0.79000
O470        O  0.70238722  0.69045034  0.89856130    -0.72600
Al471      Al  0.72479203  0.79368742  0.91308867     1.90100
O472        O  0.67546635  0.72044584  0.98531930    -0.71600
O473        O  0.61882649  0.71304219  0.86597946    -0.71500
O474        O  0.58867643  0.73828623  0.95688281    -0.77100
O475        O  0.58044231  0.77930991  0.86428878    -0.75300
O476        O  0.66457631  0.77859271  0.91276336    -1.11500
O477        O  0.64850573  0.83156459  0.83903004    -0.70700
C478        C  0.69033749  0.84056271  0.83037691     1.00100
C479        C  0.71935796  0.72282987  0.98896326     0.96400
Al480      Al  0.64705142  0.72026656  0.92540921     1.55600
O481        O  0.71670383  0.83988633  0.95951083    -0.75300
C482        C  0.58954961  0.73957856  0.84679161     1.00600
C483        C  0.73562081  0.70702373  0.87437435     0.95500
O484        O  0.73868283  0.74999100  0.86673123    -0.80600
O485        O  0.87486485  0.85736454  0.68937066    -0.80100
C486        C  0.81434589  0.96719266  0.54308178     0.99300
O487        O  0.85165219  0.95018337  0.55874516    -0.69200
O488        O  0.91029557  0.92257837  0.62381780    -0.72800
Al489      Al  0.85817919  0.89307840  0.59033280     1.49000
C490        C  0.91113019  0.95082963  0.65816812     0.94500
O491        O  0.78625172  0.95766695  0.71083527    -0.79000
O492        O  0.72697973  0.89380601  0.67061640    -0.72600
Al493      Al  0.83021620  0.90833482  0.69302050     1.90100
O494        O  0.75697325  0.98056491  0.64369423    -0.71600
O495        O  0.74957211  0.86122142  0.58705658    -0.71500
O496        O  0.77481377  0.95212638  0.55690467    -0.77100
O497        O  0.81583795  0.85953320  0.54867116    -0.75300
O498        O  0.81512090  0.90800847  0.63280519    -1.11500
O499        O  0.86809220  0.83427500  0.61673364    -0.70700
C500        C  0.87708997  0.82562135  0.65856499     1.00100
C501        C  0.75935832  0.98421001  0.68758556     0.96400
Al502      Al  0.75679514  0.92065328  0.61528031     1.55600
O503        O  0.87641484  0.95475723  0.68493128    -0.75300
C504        C  0.77610815  0.84203417  0.55777928     1.00600
C505        C  0.74355308  0.86962013  0.70385068     0.95500
O506        O  0.78651997  0.86197738  0.70691364    -0.80600
O507        O  0.89389097  0.68461963  0.84308783    -0.80100
C508        C  0.00372022  0.53832764  0.78257251     0.99300
O509        O  0.98671146  0.55399189  0.81987845    -0.69200
O510        O  0.95910724  0.61906810  0.87851959    -0.72800
Al511      Al  0.92960664  0.58557978  0.82640528     1.49000
C512        C  0.98735712  0.65341992  0.87935268     0.94500
O513        O  0.99419032  0.70608253  0.75447168    -0.79000
O514        O  0.93033117  0.66585872  0.69520371    -0.72600
Al515      Al  0.94485975  0.68826806  0.79843811     1.90100
O516        O  0.01709013  0.63893941  0.72519670    -0.71600
O517        O  0.89774947  0.58229882  0.71779890    -0.71500
O518        O  0.98865338  0.55214894  0.74304057    -0.77100
O519        O  0.89606140  0.54391576  0.78406606    -0.75300
O520        O  0.94453522  0.62805111  0.78334546    -1.11500
O521        O  0.87080316  0.61198078  0.83631853    -0.70700
C522        C  0.86214877  0.65381312  0.84531517     1.00100
C523        C  0.02073417  0.68283169  0.72757979     0.96400
Al524      Al  0.95717968  0.61052391  0.72502040     1.55600
O525        O  0.99128287  0.68018255  0.84463661    -0.75300
C526        C  0.87856259  0.55302226  0.74433601     1.00600
C527        C  0.90614406  0.69909285  0.71177633     0.95500
O528        O  0.89850123  0.70215655  0.75474272    -0.80600
C529        C  0.89423864  0.73892459  0.68419832    -0.11500
C530        C  0.88779437  0.77837022  0.67106964    -0.13100
C531        C  0.71597454  0.85771428  0.74368241    -0.11500
C532        C  0.70284352  0.85126851  0.78312651    -0.13100
C533        C  0.77545277  0.67944575  0.86246812    -0.11500
C534        C  0.81489824  0.66631751  0.85602167    -0.13100
C535        C  0.51538246  0.79006569  0.04215453    -0.11500
C536        C  0.54112961  0.78163630  0.00949272    -0.13100
C537        C  0.39424587  0.71415418  0.27838294    -0.11500
C538        C  0.38780288  0.67470928  0.29151375    -0.13100
C539        C  0.04112782  0.67145377  0.95309592    -0.11500
C540        C  0.01537792  0.66302723  0.92043367    -0.13100
C541        C  0.27546027  0.77363911  0.10011467    -0.11500
C542        C  0.31490590  0.78676728  0.10655979    -0.13100
C543        C  0.21598393  0.59537299  0.21890197    -0.11500
C544        C  0.20285155  0.60181888  0.17945799    -0.13100
C545        C  0.48487711  0.44848638  0.28638989    -0.11500
C546        C  0.45221499  0.47423466  0.29481820    -0.13100
C547        C  0.81816259  0.00473491  0.50935559    -0.11500
C548        C  0.82659262  0.03739598  0.48360651    -0.13100
C549        C  0.71123137  0.28676094  0.35603321    -0.11500
C550        C  0.75067616  0.27362972  0.36247695    -0.13100
C551        C  0.54126263  0.94848801  0.17621071    -0.11500
C552        C  0.57392453  0.97423647  0.16778186    -0.13100
C553        C  0.70797236  0.94834492  0.00935658    -0.11500
C554        C  0.69954585  0.91568356  0.98360561    -0.13100
C555        C  0.82329212  0.10180848  0.28313165    -0.11500
C556        C  0.81016200  0.09536458  0.24368673    -0.13100
C557        C  0.63834263  0.17471004  0.17107888    -0.11500
C558        C  0.63189739  0.21415458  0.18421085    -0.13100
C559        C  0.32659083  0.41569285  0.47898514    -0.11500
C560        C  0.31816221  0.44835312  0.45323534    -0.13100
C561        C  0.48500719  0.28164055  0.45310126    -0.11500
C562        C  0.51075595  0.29006875  0.42043983    -0.13100
C563        C  0.19955142  0.53740220  0.97898518    -0.11500
C564        C  0.20798079  0.50474024  0.95323673    -0.13100
C565        C  0.07392501  0.47885407  0.79481863    -0.11500
C566        C  0.04126345  0.50460203  0.78638937    -0.13100
C567        C  0.31015691  0.35772222  0.71890489    -0.11500
C568        C  0.32328837  0.35127953  0.67946009    -0.13100
C569        C  0.98501116  0.17145528  0.50949127    -0.11500
C570        C  0.01075947  0.16302750  0.54215320    -0.13100
C571        C  0.98487407  0.00460016  0.67619924    -0.11500
C572        C  0.95221176  0.97885002  0.66777317    -0.13100
C573        C  0.13189110  0.23893179  0.77839037    -0.11500
C574        C  0.13833594  0.27837720  0.79152052    -0.13100
C575        C  0.21123369  0.16632808  0.60656810    -0.11500
C576        C  0.25067811  0.17945934  0.60012212    -0.13100
C577        C  0.30141370  0.94072339  0.25098422    -0.11500
C578        C  0.33597150  0.92269397  0.23404460    -0.13100
C579        C  0.28275711  0.18819958  0.44547679    -0.11500
C580        C  0.26581886  0.15364052  0.42744722    -0.13100
C581        C  0.97725134  0.24623207  0.26964425    -0.11500
C582        C  0.95922018  0.22929343  0.30420116    -0.13100
C583        C  0.13834290  0.17471413  0.29152094    -0.11500
C584        C  0.13189802  0.21415986  0.27839212    -0.13100
C585        C  0.22472189  0.44072706  0.25098233    -0.11500
C586        C  0.19016300  0.42269906  0.23404316    -0.13100
C587        C  0.28275921  0.26489075  0.94547557    -0.11500
C588        C  0.26582027  0.29944791  0.92744540    -0.13100
C589        C  0.25068475  0.27364076  0.10012155    -0.11500
C590        C  0.21123939  0.28676881  0.10656810    -0.13100
C591        C  0.32329494  0.10181614  0.17946319    -0.11500
C592        C  0.31016405  0.09536975  0.21890738    -0.13100
C593        C  0.45922417  0.22929646  0.15838798    -0.11500
C594        C  0.47725222  0.24623522  0.19294719    -0.13100
C595        C  0.80141271  0.51235537  0.71160585    -0.11500
C596        C  0.83597093  0.53038442  0.72854578    -0.13100
C597        C  0.76581820  0.29944052  0.53514553    -0.11500
C598        C  0.78276039  0.26488383  0.51711695    -0.13100
C599        C  0.76581760  0.15363535  0.03514750    -0.11500
C600        C  0.78275748  0.18819203  0.01711652    -0.13100
C601        C  0.01075743  0.29005463  0.04215546    -0.11500
C602        C  0.98500691  0.28162800  0.00949367    -0.13100
C603        C  0.82328700  0.35126126  0.78312732    -0.11500
C604        C  0.81015497  0.35770781  0.74368301    -0.13100
C605        C  0.97724662  0.20684646  0.76964353    -0.11500
C606        C  0.95921649  0.22378414  0.80420161    -0.13100
C607        C  0.47724725  0.20684852  0.69294403    -0.11500
C608        C  0.45921821  0.22379231  0.65838822    -0.13100
C609        C  0.51075321  0.16301803  0.92043135    -0.11500
C610        C  0.48500575  0.17144770  0.95309338    -0.13100
C611        C  0.75067606  0.17943999  0.86247196    -0.11500
C612        C  0.71123025  0.16631195  0.85602571    -0.13100
C613        C  0.63189019  0.23892538  0.68420056    -0.11500
C614        C  0.63833426  0.27837035  0.67106956    -0.13100
C615        C  0.69016270  0.03038728  0.72854174    -0.11500
C616        C  0.72472132  0.01235887  0.71160300    -0.13100
C617        C  0.04888909  0.74623348  0.19294605    -0.11500
C618        C  0.06691967  0.72929571  0.15838834    -0.13100
C619        C  0.04126361  0.94848184  0.28638816    -0.11500
C620        C  0.07392561  0.97423225  0.29481427    -0.13100
C621        C  0.80141396  0.94072019  0.21160503    -0.11500
C622        C  0.83597152  0.92269048  0.22854385    -0.13100
C623        C  0.74337836  0.76488371  0.51711154    -0.11500
C624        C  0.76031737  0.79944205  0.53514175    -0.13100
C625        C  0.77545405  0.77362739  0.36246465    -0.11500
C626        C  0.81489870  0.78675822  0.35601776    -0.13100
C627        C  0.54888663  0.74623442  0.26964396    -0.11500
C628        C  0.56691449  0.72929183  0.30420043    -0.13100
C629        C  0.70797368  0.50473128  0.50935225    -0.11500
C630        C  0.69954492  0.53739203  0.48360216    -0.13100
C631        C  0.72472214  0.44071944  0.21160350    -0.11500
C632        C  0.69016593  0.42269175  0.22854728    -0.13100
C633        C  0.81815198  0.44834083  0.00935019    -0.11500
C634        C  0.82658161  0.41567907  0.98360109    -0.13100
C635        C  0.95220705  0.47422807  0.16776942    -0.11500
C636        C  0.98486892  0.44847975  0.17619848    -0.13100
C637        C  0.88779743  0.67470613  0.17106445    -0.11500
C638        C  0.89424343  0.71415167  0.18419443    -0.13100
C639        C  0.70284294  0.60180549  0.28312605    -0.11500
C640        C  0.71597413  0.59536170  0.24368132    -0.13100
C641        C  0.74337513  0.68819290  0.01711255    -0.11500
C642        C  0.76031325  0.65363437  0.03514200    -0.13100
C643        C  0.56691268  0.72378663  0.80420025    -0.11500
C644        C  0.54888392  0.70684662  0.76964210    -0.13100
C645        C  0.33596952  0.53038877  0.73404251    -0.11500
C646        C  0.30141235  0.51236209  0.75098531    -0.13100
C647        C  0.54126019  0.50459435  0.67619953    -0.11500
C648        C  0.57392203  0.47884592  0.66777063    -0.13100
C649        C  0.51537891  0.66301417  0.54215126    -0.11500
C650        C  0.54112760  0.67144265  0.50948972    -0.13100
C651        C  0.22472285  0.01236207  0.75098016    -0.11500
C652        C  0.19016568  0.03039242  0.73404102    -0.13100
C653        C  0.31816171  0.00474045  0.95323070    -0.11500
C654        C  0.32658848  0.03740195  0.97898216    -0.13100
C655        C  0.48487094  0.00459318  0.78637658    -0.11500
C656        C  0.45220928  0.97884424  0.79480583    -0.13100
C657        C  0.38779071  0.77836927  0.79151417    -0.11500
C658        C  0.39423704  0.73892444  0.77838248    -0.13100
C659        C  0.24337504  0.76489166  0.94547188    -0.11500
C660        C  0.26031439  0.79944893  0.92744165    -0.13100
C661        C  0.24337623  0.68819874  0.44546904    -0.11500
C662        C  0.26031887  0.65364246  0.42743991    -0.13100
C663        C  0.20797384  0.94834599  0.45323285    -0.11500
C664        C  0.19954375  0.91568485  0.47898160    -0.13100
C665        C  0.04112358  0.78162622  0.45309492    -0.11500
C666        C  0.01537462  0.79005404  0.42043358    -0.13100
C667        C  0.21597060  0.85771651  0.71890216    -0.11500
C668        C  0.20284115  0.85127153  0.67945718    -0.13100
C669        C  0.27545796  0.67944855  0.60011152    -0.11500
C670        C  0.31490230  0.66631735  0.60655706    -0.13100
C671        C  0.04888393  0.70684837  0.69294256    -0.11500
C672        C  0.06691470  0.72378637  0.65838498    -0.13100
loop_ 
_geom_bond_atom_site_label_1 
_geom_bond_atom_site_label_2 
_geom_bond_distance 
_geom_bond_site_symmetry_2 
_ccdc_geom_bond_type 
O1           C16   1.251       .  A
O1           Al9   1.865       .  S
C2           O12   1.256       .  A
C2            O3   1.273       .  A
C2          C665   1.448       .  S
O3           Al5   1.966       .  S
O4            C6   1.262       .  A
O4           Al5   1.897       .  S
Al5          O13   1.893       .  S
Al5          O15   1.955       .  S
Al5          O14   1.779       .  S
C6           O19   1.269       .  A
C6          C661   1.450       .  S
O7           C17   1.259       .  A
O7           Al9   1.888       .  S
O8           C21   1.249       .  A
O8          Al18   1.866       .  S
Al9          O22   1.941       .  S
Al9          O19   1.958       .  S
Al9          O14   1.776       .  S
O10          C17   1.273       .  A
O10         Al18   1.963       .  S
O11          C20   1.269       .  A
O11         Al18   1.951       .  S
O12         Al18   1.876       .  S
O13          C20   1.257       .  A
O14         Al18   1.782       .  S
O15          C16   1.268       .  A
C16         C669   1.427       .  S
C17         C664   1.449       .  S
C20         C672   1.452       .  S
C21          O22   1.267       .  A
C21         C668   1.431       .  S
O23          C38   1.251       .  A
O23         Al31   1.865       .  S
C24          O34   1.256       .  A
C24          O25   1.273       .  A
C24         C653   1.448   1_565  S
O25         Al27   1.966       .  S
O26          C28   1.262       .  A
O26         Al27   1.897       .  S
Al27         O35   1.893       .  S
Al27         O37   1.955       .  S
Al27         O36   1.779       .  S
C28          O41   1.269       .  A
C28         C651   1.450   1_565  S
O29          C39   1.259       .  A
O29         Al31   1.888       .  S
O30          C43   1.249       .  A
O30         Al40   1.866       .  S
Al31         O44   1.941       .  S
Al31         O41   1.958       .  S
Al31         O36   1.776       .  S
O32          C39   1.273       .  A
O32         Al40   1.963       .  S
O33          C42   1.269       .  A
O33         Al40   1.951       .  S
O34         Al40   1.876       .  S
O35          C42   1.257       .  A
O36         Al40   1.782       .  S
O37          C38   1.268       .  A
C38         C667   1.427       .  S
C39         C656   1.449       .  S
C42         C660   1.452       .  S
C43          O44   1.267       .  A
C43         C657   1.431       .  S
O45          C60   1.251       .  A
O45         Al53   1.865       .  S
C46          O56   1.256       .  A
C46          O47   1.273       .  A
C46         C647   1.448       .  S
O47         Al49   1.966       .  S
O48          C50   1.262       .  A
O48         Al49   1.897       .  S
Al49         O57   1.893       .  S
Al49         O59   1.955       .  S
Al49         O58   1.779       .  S
C50          O63   1.269       .  A
C50         C644   1.450       .  S
O51          C61   1.259       .  A
O51         Al53   1.888       .  S
O52          C65   1.249       .  A
O52         Al62   1.866       .  S
Al53         O66   1.941       .  S
Al53         O63   1.958       .  S
Al53         O58   1.776       .  S
O54          C61   1.273       .  A
O54         Al62   1.963       .  S
O55          C64   1.269       .  A
O55         Al62   1.951       .  S
O56         Al62   1.876       .  S
O57          C64   1.257       .  A
O58         Al62   1.782       .  S
O59          C60   1.268       .  A
C60         C658   1.427       .  S
C61         C649   1.449       .  S
C64         C645   1.452       .  S
C65          O66   1.267       .  A
C65         C670   1.431       .  S
O67          C82   1.251       .  A
O67         Al75   1.865       .  S
C68          O78   1.256       .  A
C68          O69   1.273       .  A
C68         C633   1.448       .  S
O69         Al71   1.966       .  S
O70          C72   1.262       .  A
O70         Al71   1.897       .  S
Al71         O79   1.893       .  S
Al71         O81   1.955       .  S
Al71         O80   1.779       .  S
C72          O85   1.269       .  A
C72         C631   1.450       .  S
O73          C83   1.259       .  A
O73         Al75   1.888       .  S
O74          C87   1.249       .  A
O74         Al84   1.866       .  S
Al75         O88   1.941       .  S
Al75         O85   1.958       .  S
Al75         O80   1.776       .  S
O76          C83   1.273       .  A
O76         Al84   1.963       .  S
O77          C86   1.269       .  A
O77         Al84   1.951       .  S
O78         Al84   1.876       .  S
O79          C86   1.257       .  A
O80         Al84   1.782       .  S
O81          C82   1.268       .  A
C82         C640   1.427       .  S
C83         C635   1.449       .  S
C86         C642   1.452       .  S
C87          O88   1.267       .  A
C87         C637   1.431       .  S
O89         C104   1.251       .  A
O89         Al97   1.865       .  S
C90         O100   1.256       .  A
C90          O91   1.273       .  A
C90         C650   1.448       .  S
O91         Al93   1.966       .  S
O92          C94   1.262       .  A
O92         Al93   1.897       .  S
Al93        O101   1.893       .  S
Al93        O103   1.955       .  S
Al93        O102   1.779       .  S
C94         O107   1.269       .  A
C94         C623   1.450       .  S
O95         C105   1.259       .  A
O95         Al97   1.888       .  S
O96         C109   1.249       .  A
O96        Al106   1.866       .  S
Al97        O110   1.941       .  S
Al97        O107   1.958       .  S
Al97        O102   1.776       .  S
O98         C105   1.273       .  A
O98        Al106   1.963       .  S
O99         C108   1.269       .  A
O99        Al106   1.951       .  S
O100       Al106   1.876       .  S
O101        C108   1.257       .  A
O102       Al106   1.782       .  S
O103        C104   1.268       .  A
C104        C625   1.427       .  S
C105        C630   1.449       .  S
C108        C628   1.452       .  S
C109        O110   1.267       .  A
C109        C639   1.431       .  S
O111        C126   1.251       .  A
O111       Al119   1.865       .  S
C112        O122   1.256   1_455  A
C112        O113   1.273   1_455  A
C112        C619   1.448       .  S
O113       Al115   1.966       .  S
O114        C116   1.262       .  A
O114       Al115   1.897   1_455  S
Al115       O123   1.893       .  S
Al115       O125   1.955       .  S
Al115       O124   1.779       .  S
C116        O129   1.269   1_455  A
C116        C617   1.450       .  S
O117        C127   1.259       .  A
O117       Al119   1.888       .  S
O118        C131   1.249       .  A
O118       Al128   1.866       .  S
Al119       O132   1.941       .  S
Al119       O129   1.958       .  S
Al119       O124   1.776       .  S
O120        C127   1.273       .  A
O120       Al128   1.963       .  S
O121        C130   1.269       .  A
O121       Al128   1.951       .  S
O122       Al128   1.876       .  S
O123        C130   1.257       .  A
O124       Al128   1.782       .  S
O125        C126   1.268       .  A
C126        C638   1.427       .  S
C127        C666   1.449   1_655  S
C130        C622   1.452       .  S
C131        O132   1.267       .  A
C131        C626   1.431       .  S
O133        C148   1.251       .  A
O133       Al141   1.865       .  S
C134        O144   1.256       .  A
C134        O135   1.273       .  A
C134        C655   1.448       .  S
O135       Al137   1.966       .  S
O136        C138   1.262       .  A
O136       Al137   1.897       .  S
Al137       O145   1.893       .  S
Al137       O147   1.955       .  S
Al137       O146   1.779       .  S
C138        O151   1.269       .  A
C138        C607   1.450       .  S
O139        C149   1.259       .  A
O139       Al141   1.888       .  S
O140        C153   1.249       .  A
O140       Al150   1.866       .  S
Al141       O154   1.941       .  S
Al141       O151   1.958       .  S
Al141       O146   1.776       .  S
O142        C149   1.273       .  A
O142       Al150   1.963       .  S
O143        C152   1.269       .  A
O143       Al150   1.951       .  S
O144       Al150   1.876       .  S
O145        C152   1.257       .  A
O146       Al150   1.782       .  S
O147        C148   1.268       .  A
C148        C613   1.427       .  S
C149        C609   1.449       .  S
C152        C615   1.452       .  S
C153        O154   1.267       .  A
C153        C612   1.431       .  S
O155        C170   1.251       .  A
O155       Al163   1.865       .  S
C156        O166   1.256       .  A
C156        O157   1.273       .  A
C156        C602   1.448   1_556  S
O157       Al159   1.966       .  S
O158        C160   1.262       .  A
O158       Al159   1.897       .  S
Al159       O167   1.893       .  S
Al159       O169   1.955       .  S
Al159       O168   1.779       .  S
C160        O173   1.269       .  A
C160        C600   1.450   1_556  S
O161        C171   1.259       .  A
O161       Al163   1.888       .  S
O162        C175   1.249       .  A
O162       Al172   1.866       .  S
Al163       O176   1.941       .  S
Al163       O173   1.958       .  S
Al163       O168   1.776       .  S
O164        C171   1.273       .  A
O164       Al172   1.963       .  S
O165        C174   1.269       .  A
O165       Al172   1.951       .  S
O166       Al172   1.876       .  S
O167        C174   1.257       .  A
O168       Al172   1.782       .  S
O169        C170   1.268       .  A
C170        C611   1.427       .  S
C171        C634   1.449       .  S
C174        C606   1.452       .  S
C175        O176   1.267       .  A
C175        C603   1.431       .  S
O177        C192   1.251       .  A
O177       Al185   1.865       .  S
C178        O188   1.256       .  A
C178        O179   1.273       .  A
C178        C629   1.448       .  S
O179       Al181   1.966       .  S
O180        C182   1.262       .  A
O180       Al181   1.897       .  S
Al181       O189   1.893       .  S
Al181       O191   1.955       .  S
Al181       O190   1.779       .  S
C182        O195   1.269       .  A
C182        C595   1.450       .  S
O183        C193   1.259       .  A
O183       Al185   1.888       .  S
O184        C197   1.249       .  A
O184       Al194   1.866       .  S
Al185       O198   1.941       .  S
Al185       O195   1.958       .  S
Al185       O190   1.776       .  S
O186        C193   1.273       .  A
O186       Al194   1.963       .  S
O187        C196   1.269       .  A
O187       Al194   1.951       .  S
O188       Al194   1.876       .  S
O189        C196   1.257       .  A
O190       Al194   1.782       .  S
O191        C192   1.268       .  A
C192        C604   1.427       .  S
C193        C648   1.449       .  S
C196        C597   1.452       .  S
C197        O198   1.267       .  A
C197        C614   1.431       .  S
O199        C214   1.251       .  A
O199       Al207   1.865       .  S
C200        O210   1.256   1_556  A
C200        O201   1.273   1_556  A
C200        C610   1.448       .  S
O201       Al203   1.966       .  S
O202        C204   1.262       .  A
O202       Al203   1.897   1_556  S
Al203       O211   1.893       .  S
Al203       O213   1.955       .  S
Al203       O212   1.779       .  S
C204        O217   1.269   1_556  A
C204        C587   1.450       .  S
O205        C215   1.259       .  A
O205       Al207   1.888       .  S
O206        C219   1.249       .  A
O206       Al216   1.866       .  S
Al207       O220   1.941       .  S
Al207       O217   1.958       .  S
Al207       O212   1.776       .  S
O208        C215   1.273       .  A
O208       Al216   1.963       .  S
O209        C218   1.269       .  A
O209       Al216   1.951       .  S
O210       Al216   1.876       .  S
O211        C218   1.257       .  A
O212       Al216   1.782       .  S
O213        C214   1.268       .  A
C214        C589   1.427       .  S
C215        C654   1.449   1_554  S
C218        C593   1.452       .  S
C219        O220   1.267       .  A
C219        C591   1.431       .  S
O221        C236   1.251       .  A
O221       Al229   1.865       .  S
C222        O232   1.256       .  A
C222        O223   1.273       .  A
C222        C636   1.448   1_455  S
O223       Al225   1.966       .  S
O224        C226   1.262       .  A
O224       Al225   1.897       .  S
Al225       O233   1.893       .  S
Al225       O235   1.955       .  S
Al225       O234   1.779       .  S
C226        O239   1.269       .  A
C226        C581   1.450   1_455  S
O227        C237   1.259       .  A
O227       Al229   1.888       .  S
O228        C241   1.249       .  A
O228       Al238   1.866       .  S
Al229       O242   1.941       .  S
Al229       O239   1.958       .  S
Al229       O234   1.776       .  S
O230        C237   1.273       .  A
O230       Al238   1.963       .  S
O231        C240   1.269       .  A
O231       Al238   1.951       .  S
O232       Al238   1.876       .  S
O233        C240   1.257       .  A
O234       Al238   1.782       .  S
O235        C236   1.268       .  A
C236        C584   1.427       .  S
C237        C601   1.449       .  S
C240        C586   1.452       .  S
C241        O242   1.267       .  A
C241        C590   1.431       .  S
O243        C258   1.251       .  A
O243       Al251   1.865       .  S
C244        O254   1.256   1_565  A
C244        O245   1.273   1_565  A
C244        C663   1.448       .  S
O245       Al247   1.966       .  S
O246        C248   1.262       .  A
O246       Al247   1.897   1_565  S
Al247       O255   1.893       .  S
Al247       O257   1.955       .  S
Al247       O256   1.779       .  S
C248        O261   1.269       .  A
C248        C577   1.450       .  S
O249        C259   1.259   1_565  A
O249       Al251   1.888   1_565  S
O250        C263   1.249       .  A
O250       Al260   1.866       .  S
Al251       O264   1.941       .  S
Al251       O261   1.958   1_545  S
Al251       O256   1.776       .  S
O252        C259   1.273       .  A
O252       Al260   1.963       .  S
O253        C262   1.269       .  A
O253       Al260   1.951       .  S
O254       Al260   1.876       .  S
O255        C262   1.257       .  A
O256       Al260   1.782       .  S
O257        C258   1.268       .  A
C258        C592   1.427       .  S
C259        C620   1.449   1_545  S
C262        C580   1.452       .  S
C263        O264   1.267       .  A
C263        C583   1.431       .  S
O265        C280   1.267       .  A
O265       Al273   1.941       .  S
C266        O276   1.273       .  A
C266        O267   1.256       .  A
C266        C571   1.448   1_455  S
O267       Al269   1.876       .  S
O268        C270   1.273       .  A
O268       Al269   1.963       .  S
Al269       O277   1.951       .  S
Al269       O279   1.866       .  S
Al269       O278   1.782       .  S
C270        O283   1.259       .  A
C270        C570   1.449       .  S
O271        C281   1.269       .  A
O271       Al273   1.958       .  S
O272        C285   1.268       .  A
O272       Al282   1.955       .  S
Al273       O286   1.865       .  S
Al273       O283   1.888       .  S
Al273       O278   1.776       .  S
O274        C281   1.262       .  A
O274       Al282   1.897       .  S
O275        C284   1.257       .  A
O275       Al282   1.893       .  S
O276       Al282   1.966       .  S
O277        C284   1.269       .  A
O278       Al282   1.779       .  S
O279        C280   1.249       .  A
C280        C575   1.431       .  S
C281        C605   1.450   1_455  S
C284        C652   1.452       .  S
C285        O286   1.251       .  A
C285        C573   1.427       .  S
O287        C302   1.267       .  A
O287       Al295   1.941       .  S
C288        O298   1.273       .  A
C288        O289   1.256       .  A
C288        C564   1.448       .  S
O289       Al291   1.876       .  S
O290        C292   1.273       .  A
O290       Al291   1.963       .  S
Al291       O299   1.951       .  S
Al291       O301   1.866       .  S
Al291       O300   1.782       .  S
C292        O305   1.259       .  A
C292        C565   1.449       .  S
O293        C303   1.269       .  A
O293       Al295   1.958       .  S
O294        C307   1.268       .  A
O294       Al304   1.955       .  S
Al295       O308   1.865       .  S
Al295       O305   1.888       .  S
Al295       O300   1.776       .  S
O296        C303   1.262       .  A
O296       Al304   1.897       .  S
O297        C306   1.257       .  A
O297       Al304   1.893       .  S
O298       Al304   1.966       .  S
O299        C306   1.269       .  A
O300       Al304   1.779       .  S
O301        C302   1.249       .  A
C302        C574   1.431       .  S
C303        C646   1.450       .  S
C306        C588   1.452       .  S
C307        O308   1.251       .  A
C307        C567   1.427       .  S
O309        C324   1.267       .  A
O309       Al317   1.941       .  S
C310        O320   1.273       .  A
C310        O311   1.256       .  A
C310        C561   1.448       .  S
O311       Al313   1.876       .  S
O312        C314   1.273       .  A
O312       Al313   1.963       .  S
Al313       O321   1.951       .  S
Al313       O323   1.866       .  S
Al313       O322   1.782       .  S
C314        O327   1.259       .  A
C314        C559   1.449       .  S
O315        C325   1.269       .  A
O315       Al317   1.958       .  S
O316        C329   1.268       .  A
O316       Al326   1.955       .  S
Al317       O330   1.865       .  S
Al317       O327   1.888       .  S
Al317       O322   1.776       .  S
O318        C325   1.262       .  A
O318       Al326   1.897       .  S
O319        C328   1.257       .  A
O319       Al326   1.893       .  S
O320       Al326   1.966       .  S
O321        C328   1.269       .  A
O322       Al326   1.779       .  S
O323        C324   1.249       .  A
C324        C568   1.431       .  S
C325        C579   1.450       .  S
C328        C608   1.452       .  S
C329        O330   1.251       .  A
C329        C576   1.427       .  S
O331        C346   1.267       .  A
O331       Al339   1.941       .  S
C332        O342   1.273   1_565  A
C332        O333   1.256   1_565  A
C332        C553   1.448       .  S
O333       Al335   1.876       .  S
O334        C336   1.273       .  A
O334       Al335   1.963       .  S
Al335       O343   1.951       .  S
Al335       O345   1.866       .  S
Al335       O344   1.782       .  S
C336        O349   1.259   1_545  A
C336        C552   1.449   1_545  S
O337        C347   1.269       .  A
O337       Al339   1.958   1_565  S
O338        C351   1.268       .  A
O338       Al348   1.955       .  S
Al339       O352   1.865       .  S
Al339       O349   1.888   1_545  S
Al339       O344   1.776       .  S
O340        C347   1.262       .  A
O340       Al348   1.897   1_565  S
O341        C350   1.257       .  A
O341       Al348   1.893       .  S
O342       Al348   1.966       .  S
O343        C350   1.269       .  A
O344       Al348   1.779       .  S
O345        C346   1.249       .  A
C346        C557   1.431       .  S
C347        C621   1.450       .  S
C350        C599   1.452       .  S
C351        O352   1.251       .  A
C351        C556   1.427       .  S
O353        C368   1.267       .  A
O353       Al361   1.941       .  S
C354        O364   1.273       .  A
C354        O355   1.256       .  A
C354        C569   1.448       .  S
O355       Al357   1.876       .  S
O356        C358   1.273       .  A
O356       Al357   1.963       .  S
Al357       O365   1.951       .  S
Al357       O367   1.866       .  S
Al357       O366   1.782       .  S
C358        O371   1.259       .  A
C358        C548   1.449       .  S
O359        C369   1.269       .  A
O359       Al361   1.958       .  S
O360        C373   1.268       .  A
O360       Al370   1.955       .  S
Al361       O374   1.865       .  S
Al361       O371   1.888       .  S
Al361       O366   1.776       .  S
O362        C369   1.262       .  A
O362       Al370   1.897       .  S
O363        C372   1.257       .  A
O363       Al370   1.893       .  S
O364       Al370   1.966       .  S
O365        C372   1.269       .  A
O366       Al370   1.779       .  S
O367        C368   1.249       .  A
C368        C555   1.431       .  S
C369        C598   1.450       .  S
C372        C582   1.452       .  S
C373        O374   1.251       .  A
C373        C550   1.427       .  S
O375        C390   1.267       .  A
O375       Al383   1.941       .  S
C376        O386   1.273       .  A
C376        O377   1.256       .  A
C376        C545   1.448       .  S
O377       Al379   1.876       .  S
O378        C380   1.273       .  A
O378       Al379   1.963       .  S
Al379       O387   1.951       .  S
Al379       O389   1.866       .  S
Al379       O388   1.782       .  S
C380        O393   1.259       .  A
C380        C562   1.449       .  S
O381        C391   1.269       .  A
O381       Al383   1.958       .  S
O382        C395   1.268       .  A
O382       Al392   1.955       .  S
Al383       O396   1.865       .  S
Al383       O393   1.888       .  S
Al383       O388   1.776       .  S
O384        C391   1.262       .  A
O384       Al392   1.897       .  S
O385        C394   1.257       .  A
O385       Al392   1.893       .  S
O386       Al392   1.966       .  S
O387        C394   1.269       .  A
O388       Al392   1.779       .  S
O389        C390   1.249       .  A
C390        C549   1.431       .  S
C391        C594   1.450       .  S
C394        C632   1.452       .  S
C395        O396   1.251       .  A
C395        C558   1.427       .  S
O397        C412   1.267       .  A
O397       Al405   1.941       .  S
C398        O408   1.273   1_556  A
C398        O399   1.256   1_556  A
C398        C539   1.448       .  S
O399       Al401   1.876       .  S
O400        C402   1.273       .  A
O400       Al401   1.963       .  S
Al401       O409   1.951       .  S
Al401       O411   1.866       .  S
Al401       O410   1.782       .  S
C402        O415   1.259       .  A
C402        C563   1.449   1_554  S
O403        C413   1.269   1_554  A
O403       Al405   1.958       .  S
O404        C417   1.268       .  A
O404       Al414   1.955       .  S
Al405       O418   1.865       .  S
Al405       O415   1.888       .  S
Al405       O410   1.776       .  S
O406        C413   1.262       .  A
O406       Al414   1.897   1_556  S
O407        C416   1.257       .  A
O407       Al414   1.893       .  S
O408       Al414   1.966       .  S
O409        C416   1.269       .  A
O410       Al414   1.779       .  S
O411        C412   1.249       .  A
C412        C544   1.431       .  S
C413        C659   1.450       .  S
C416        C618   1.452       .  S
C417        O418   1.251       .  A
C417        C541   1.427       .  S
O419        C434   1.267       .  A
O419       Al427   1.941       .  S
C420        O430   1.273       .  A
C420        O421   1.256       .  A
C420        C551   1.448       .  S
O421       Al423   1.876       .  S
O422        C424   1.273       .  A
O422       Al423   1.963       .  S
Al423       O431   1.951       .  S
Al423       O433   1.866       .  S
Al423       O432   1.782       .  S
C424        O437   1.259       .  A
C424        C535   1.449       .  S
O425        C435   1.269       .  A
O425       Al427   1.958       .  S
O426        C439   1.268       .  A
O426       Al436   1.955       .  S
Al427       O440   1.865       .  S
Al427       O437   1.888       .  S
Al427       O432   1.776       .  S
O428        C435   1.262       .  A
O428       Al436   1.897       .  S
O429        C438   1.257       .  A
O429       Al436   1.893       .  S
O430       Al436   1.966       .  S
O431        C438   1.269       .  A
O432       Al436   1.779       .  S
O433        C434   1.249       .  A
C434        C542   1.431       .  S
C435        C627   1.450       .  S
C438        C578   1.452       .  S
C439        O440   1.251       .  A
C439        C537   1.427       .  S
O441        C456   1.267       .  A
O441       Al449   1.941       .  S
C442        O452   1.273       .  A
C442        O443   1.256       .  A
C442        C560   1.448       .  S
O443       Al445   1.876       .  S
O444        C446   1.273       .  A
O444       Al445   1.963       .  S
Al445       O453   1.951       .  S
Al445       O455   1.866       .  S
Al445       O454   1.782       .  S
C446        O459   1.259       .  A
C446        C546   1.449       .  S
O447        C457   1.269       .  A
O447       Al449   1.958       .  S
O448        C461   1.268       .  A
O448       Al458   1.955       .  S
Al449       O462   1.865       .  S
Al449       O459   1.888       .  S
Al449       O454   1.776       .  S
O450        C457   1.262       .  A
O450       Al458   1.897       .  S
O451        C460   1.257       .  A
O451       Al458   1.893       .  S
O452       Al458   1.966       .  S
O453        C460   1.269       .  A
O454       Al458   1.779       .  S
O455        C456   1.249       .  A
C456        C538   1.431       .  S
C457        C585   1.450       .  S
C460        C662   1.452       .  S
C461        O462   1.251       .  A
C461        C543   1.427       .  S
O463        C478   1.267       .  A
O463       Al471   1.941       .  S
C464        O474   1.273       .  A
C464        O465   1.256       .  A
C464        C536   1.448   1_556  S
O465       Al467   1.876       .  S
O466        C468   1.273       .  A
O466       Al467   1.963       .  S
Al467       O475   1.951       .  S
Al467       O477   1.866       .  S
Al467       O476   1.782       .  S
C468        O481   1.259       .  A
C468        C554   1.449       .  S
O469        C479   1.269       .  A
O469       Al471   1.958       .  S
O470        C483   1.268       .  A
O470       Al480   1.955       .  S
Al471       O484   1.865       .  S
Al471       O481   1.888       .  S
Al471       O476   1.776       .  S
O472        C479   1.262       .  A
O472       Al480   1.897       .  S
O473        C482   1.257       .  A
O473       Al480   1.893       .  S
O474       Al480   1.966       .  S
O475        C482   1.269       .  A
O476       Al480   1.779       .  S
O477        C478   1.249       .  A
C478        C532   1.431       .  S
C479        C641   1.450   1_556  S
C482        C643   1.452       .  S
C483        O484   1.251       .  A
C483        C533   1.427       .  S
O485        C500   1.267       .  A
O485       Al493   1.941       .  S
C486        O496   1.273       .  A
C486        O487   1.256       .  A
C486        C547   1.448   1_565  S
O487       Al489   1.876       .  S
O488        C490   1.273       .  A
O488       Al489   1.963       .  S
Al489       O497   1.951       .  S
Al489       O499   1.866       .  S
Al489       O498   1.782       .  S
C490        O503   1.259       .  A
C490        C572   1.449       .  S
O491        C501   1.269       .  A
O491       Al493   1.958       .  S
O492        C505   1.268       .  A
O492       Al502   1.955       .  S
Al493       O506   1.865       .  S
Al493       O503   1.888       .  S
Al493       O498   1.776       .  S
O494        C501   1.262       .  A
O494       Al502   1.897       .  S
O495        C504   1.257       .  A
O495       Al502   1.893       .  S
O496       Al502   1.966       .  S
O497        C504   1.269       .  A
O498       Al502   1.779       .  S
O499        C500   1.249       .  A
C500        C530   1.431       .  S
C501        C616   1.450   1_565  S
C504        C624   1.452       .  S
C505        O506   1.251       .  A
C505        C531   1.427       .  S
O507        C522   1.267       .  A
O507       Al515   1.941       .  S
C508        O518   1.273   1_455  A
C508        O509   1.256   1_455  A
C508        C566   1.448       .  S
O509       Al511   1.876       .  S
O510        C512   1.273       .  A
O510       Al511   1.963       .  S
Al511       O519   1.951       .  S
Al511       O521   1.866       .  S
Al511       O520   1.782       .  S
C512        O525   1.259       .  A
C512        C540   1.449   1_655  S
O513        C523   1.269   1_655  A
O513       Al515   1.958       .  S
O514        C527   1.268       .  A
O514       Al524   1.955       .  S
Al515       O528   1.865       .  S
Al515       O525   1.888       .  S
Al515       O520   1.776       .  S
O516        C523   1.262       .  A
O516       Al524   1.897   1_455  S
O517        C526   1.257       .  A
O517       Al524   1.893       .  S
O518       Al524   1.966       .  S
O519        C526   1.269       .  A
O520       Al524   1.779       .  S
O521        C522   1.249       .  A
C522        C534   1.431       .  S
C523        C671   1.450       .  S
C526        C596   1.452       .  S
C527        O528   1.251       .  A
C527        C529   1.427       .  S
C529        C530   1.203       .  T
C531        C532   1.203       .  T
C533        C534   1.203       .  T
C535        C536   1.214       .  T
C537        C538   1.203       .  T
C539        C540   1.214       .  T
C541        C542   1.203       .  T
C543        C544   1.203       .  T
C545        C546   1.214       .  T
C547        C548   1.214       .  T
C549        C550   1.203       .  T
C551        C552   1.214       .  T
C553        C554   1.214   1_554  T
C555        C556   1.203       .  T
C557        C558   1.203       .  T
C559        C560   1.214       .  T
C561        C562   1.214       .  T
C563        C564   1.214       .  T
C565        C566   1.214       .  T
C567        C568   1.203       .  T
C569        C570   1.214   1_655  T
C571        C572   1.214   1_545  T
C573        C574   1.203       .  T
C575        C576   1.203       .  T
C577        C578   1.216       .  T
C579        C580   1.216       .  T
C581        C582   1.216       .  T
C583        C584   1.203       .  T
C585        C586   1.216       .  T
C587        C588   1.216       .  T
C589        C590   1.203       .  T
C591        C592   1.203       .  T
C593        C594   1.216       .  T
C595        C596   1.216       .  T
C597        C598   1.216       .  T
C599        C600   1.216       .  T
C601        C602   1.214   1_455  T
C603        C604   1.203       .  T
C605        C606   1.216       .  T
C607        C608   1.216       .  T
C609        C610   1.214       .  T
C611        C612   1.203       .  T
C613        C614   1.203       .  T
C615        C616   1.216       .  T
C617        C618   1.216       .  T
C619        C620   1.214       .  T
C621        C622   1.216       .  T
C623        C624   1.216       .  T
C625        C626   1.203       .  T
C627        C628   1.216       .  T
C629        C630   1.214       .  T
C631        C632   1.216       .  T
C633        C634   1.214   1_554  T
C635        C636   1.214       .  T
C637        C638   1.203       .  T
C639        C640   1.203       .  T
C641        C642   1.216       .  T
C643        C644   1.216       .  T
C645        C646   1.216       .  T
C647        C648   1.214       .  T
C649        C650   1.214       .  T
C651        C652   1.216       .  T
C653        C654   1.214       .  T
C655        C656   1.214   1_545  T
C657        C658   1.203       .  T
C659        C660   1.216       .  T
C661        C662   1.216       .  T
C663        C664   1.214       .  T
C665        C666   1.214       .  T
C667        C668   1.203       .  T
C669        C670   1.203       .  T
C671        C672   1.216       .  T
