geometry optimzed in LAMMPS
_audit_creation_date              2020-11-30 
_audit_creation_method            'lammps2cif' 
_symmetry_space_group_name_H-M    'P1' 
_symmetry_Int_Tables_number       1 
_symmetry_cell_setting            triclinic 
loop_ 
_symmetry_equiv_pos_as_xyz 
  x,y,z 
_cell_length_a                    46.99701781 
_cell_length_b                    47.013663668812235 
_cell_length_c                    30.31307717931813 
_cell_angle_alpha                 89.26290763548762 
_cell_angle_beta                  89.78713138433834 
_cell_angle_gamma                 89.85212587089948 
loop_ 
_atom_site_label 
_atom_site_type_symbol 
_atom_site_fract_x 
_atom_site_fract_y 
_atom_site_fract_z 
_atom_site_charge 
O1          O  0.39111943  0.91179847  0.96526314    -0.71000
O2          O  0.39186261  0.83116420  0.96986225    -0.71200
O3          O  0.39069779  0.87029613  0.90479062    -0.71000
O4          O  0.39221263  0.87256900  0.02992515    -0.71000
O5          O  0.34606922  0.87042071  0.03142136    -0.71000
O6          O  0.34456511  0.87143815  0.90641434    -0.71000
O7          O  0.34596680  0.83044517  0.96900700    -0.71000
O8          O  0.34508231  0.91169879  0.96885713    -0.71100
V9          V  0.39057186  0.87146848  0.96741906     1.35200
V10         V  0.34627676  0.87106427  0.96888297     1.35200
C11         C  0.36811299  0.92567687  0.96710319     0.78300
C12         C  0.36923399  0.81673674  0.96939960     0.78300
C13         C  0.36733191  0.87051174  0.88419579     0.78200
C14         C  0.36936387  0.87145932  0.05199408     0.78200
O15         O  0.38960041  0.91404435  0.46977154    -0.71000
O16         O  0.39199160  0.83355220  0.46711753    -0.71200
O17         O  0.39059652  0.87500333  0.40566956    -0.71000
O18         O  0.39078219  0.87248224  0.53084631    -0.71000
O19         O  0.34460784  0.87398879  0.53112113    -0.71000
O20         O  0.34465964  0.87075494  0.40616855    -0.71000
O21         O  0.34610359  0.83203625  0.47292899    -0.71000
O22         O  0.34351342  0.91300444  0.46528607    -0.71100
V23         V  0.38985640  0.87378043  0.46824489     1.35200
V24         V  0.34555518  0.87251344  0.46867851     1.35200
C25         C  0.36622204  0.92732051  0.46786841     0.78300
C26         C  0.36967940  0.81892409  0.47207137     0.78300
C27         C  0.36760202  0.87273472  0.38445910     0.78200
C28         C  0.36767965  0.87293973  0.55235905     0.78200
O29         O  0.34496427  0.15536678  0.98618074    -0.71000
O30         O  0.34725354  0.23629926  0.98769243    -0.71200
O31         O  0.34667270  0.19693901  0.92471605    -0.71000
O32         O  0.34523997  0.19499438  0.04958456    -0.71000
O33         O  0.39134232  0.19190147  0.05056836    -0.71000
O34         O  0.39286476  0.19735682  0.92540750    -0.71000
O35         O  0.39316213  0.23483316  0.99233172    -0.71000
O36         O  0.39113270  0.15423663  0.98366227    -0.71100
V37         V  0.34692396  0.19584890  0.98710015     1.35200
V38         V  0.39125621  0.19457237  0.98798939     1.35200
C39         C  0.36771459  0.14103415  0.98321781     0.78300
C40         C  0.37057662  0.24948748  0.99127175     0.78300
C41         C  0.36991893  0.19769220  0.90372499     0.78200
C42         C  0.36804077  0.19349760  0.07142711     0.78200
O43         O  0.34135545  0.15624042  0.49000854    -0.71000
O44         O  0.34289630  0.23717389  0.48684215    -0.71200
O45         O  0.34138630  0.19643870  0.42602115    -0.71000
O46         O  0.34268935  0.19711308  0.55128049    -0.71000
O47         O  0.38881798  0.19482847  0.54977148    -0.71000
O48         O  0.38755506  0.19679929  0.42485420    -0.71000
O49         O  0.38894870  0.23598165  0.48854476    -0.71000
O50         O  0.38743288  0.15547394  0.48643315    -0.71100
V51         V  0.34293416  0.19671414  0.48858994     1.35200
V52         V  0.38727210  0.19577648  0.48739559     1.35200
C53         C  0.36419990  0.14198813  0.48804855     0.78300
C54         C  0.36628205  0.25045929  0.48745849     0.78300
C55         C  0.36429077  0.19677301  0.40403620     0.78200
C56         C  0.36603507  0.19611839  0.57188352     0.78200
O57         O  0.92773390  0.69074828  0.01680702    -0.71000
O58         O  0.84719132  0.68823230  0.01833481    -0.71200
O59         O  0.88724829  0.69033532  0.95493672    -0.71000
O60         O  0.88761373  0.68862899  0.07997266    -0.71000
O61         O  0.88490157  0.73472009  0.08065210    -0.71000
O62         O  0.88682057  0.73649480  0.95545551    -0.71000
O63         O  0.84548955  0.73425204  0.01604968    -0.71000
O64         O  0.92625684  0.73682306  0.01928455    -0.71100
V65         V  0.88741507  0.69039197  0.01753239     1.35200
V66         V  0.88589083  0.73470721  0.01797818     1.35200
C67         C  0.94082128  0.71418541  0.01788009     0.78300
C68         C  0.83247182  0.71072297  0.01633385     0.78300
C69         C  0.88709338  0.71370556  0.93381251     0.78200
C70         C  0.88609638  0.71133419  0.10168439     0.78200
O71         O  0.93259826  0.69158489  0.51811109    -0.71000
O72         O  0.85185480  0.68879105  0.52035081    -0.71200
O73         O  0.89215556  0.68883111  0.45637841    -0.71000
O74         O  0.89254823  0.69116529  0.58127708    -0.71000
O75         O  0.89055200  0.73728398  0.57848815    -0.71000
O76         O  0.89034805  0.73498522  0.45331895    -0.71000
O77         O  0.85008138  0.73468955  0.51594176    -0.71000
O78         O  0.93066569  0.73767024  0.51544052    -0.71100
V79         V  0.89222051  0.69097575  0.51889339     1.35200
V80         V  0.89044104  0.73526783  0.51591501     1.35200
C81         C  0.94544690  0.71517297  0.51652741     0.78300
C82         C  0.83701317  0.71124621  0.51846249     0.78300
C83         C  0.89149787  0.71150450  0.43353939     0.78200
C84         C  0.89168656  0.71456652  0.60122298     0.78200
O85         O  0.16878060  0.73895066  0.99810051    -0.71000
O86         O  0.24955443  0.73809129  0.99876733    -0.71200
O87         O  0.20920559  0.73927745  0.93533058    -0.71000
O88         O  0.20923033  0.73752100  0.06059140    -0.71000
O89         O  0.21046329  0.69133398  0.05985712    -0.71000
O90         O  0.20734993  0.69309467  0.93499561    -0.71000
O91         O  0.24906928  0.69215967  0.99433467    -0.71000
O92         O  0.16849078  0.69274718  0.00064646    -0.71100
V93         V  0.20915568  0.73759436  0.99804797     1.35200
V94         V  0.20881558  0.69323206  0.99741217     1.35200
C95         C  0.15489662  0.71599711  0.00053905     0.78300
C96         C  0.26319295  0.71491223  0.99716740     0.78300
C97         C  0.20821699  0.71639699  0.91387732     0.78200
C98         C  0.21038300  0.71410715  0.08150034     0.78200
O99         O  0.17396040  0.74317732  0.49769363    -0.71000
O100        O  0.25462706  0.73913755  0.49480670    -0.71200
O101        O  0.21307219  0.74048317  0.43335415    -0.71000
O102        O  0.21522469  0.74157904  0.55863516    -0.71000
O103        O  0.21365117  0.69550482  0.56027064    -0.71000
O104        O  0.21071657  0.69437809  0.43557408    -0.71000
O105        O  0.25251359  0.69315820  0.49507647    -0.71000
O106        O  0.17198222  0.69700092  0.49966164    -0.71100
V107        V  0.21422901  0.74022628  0.49607335     1.35200
V108        V  0.21227207  0.69592276  0.49773315     1.35200
C109        C  0.15926727  0.72072134  0.49866855     0.78300
C110        C  0.26747250  0.71545202  0.49470748     0.78300
C111        C  0.21102795  0.71717781  0.41316976     0.78200
C112        C  0.21485280  0.71867029  0.58093557     0.78200
O113        O  0.71179330  0.14959162  0.00830229    -0.71000
O114        O  0.70814511  0.22999416  0.00220074    -0.71200
O115        O  0.70972633  0.18877144  0.94259624    -0.71000
O116        O  0.71064188  0.19089809  0.06801173    -0.71000
O117        O  0.75680104  0.19192158  0.06650022    -0.71000
O118        O  0.75582102  0.19154416  0.94166181    -0.71000
O119        O  0.75413109  0.23211863  0.00331357    -0.71000
O120        O  0.75784202  0.15115907  0.00561534    -0.71100
V121        V  0.71096672  0.18981623  0.00524866     1.35200
V122        V  0.75526558  0.19163077  0.00419370     1.35200
C123        C  0.73529389  0.13652227  0.00848804     0.78300
C124        C  0.73040112  0.24496222  0.00210733     0.78300
C125        C  0.73266227  0.19051822  0.92073749     0.78200
C126        C  0.73400690  0.19148093  0.08863975     0.78200
O127        O  0.71817041  0.15192483  0.51024954    -0.71000
O128        O  0.71140215  0.23197789  0.49749698    -0.71200
O129        O  0.71611494  0.18892124  0.44168220    -0.71000
O130        O  0.71324128  0.19511295  0.56606190    -0.71000
O131        O  0.75934233  0.19756513  0.56806989    -0.71000
O132        O  0.76200663  0.19407253  0.44290464    -0.71000
O133        O  0.75716810  0.23601194  0.50223838    -0.71000
O134        O  0.76421278  0.15547110  0.50939884    -0.71100
V135        V  0.71564977  0.19201984  0.50387738     1.35200
V136        V  0.75983448  0.19569414  0.50553816     1.35200
C137        C  0.74228257  0.14000128  0.51232200     0.78300
C138        C  0.73304965  0.24782544  0.49847763     0.78300
C139        C  0.73938279  0.19116415  0.42094467     0.78200
C140        C  0.73578900  0.19707497  0.58837695     0.78200
O141        O  0.75720713  0.90698816  0.01338764    -0.71000
O142        O  0.75248002  0.82644001  0.01226073    -0.71200
O143        O  0.75683740  0.86715737  0.95032104    -0.71000
O144        O  0.75277138  0.86646293  0.07537057    -0.71000
O145        O  0.70693857  0.87176152  0.07219136    -0.71000
O146        O  0.71075065  0.86731159  0.94711887    -0.71000
O147        O  0.70652758  0.82916567  0.01396459    -0.71000
O148        O  0.71135264  0.90975633  0.00549855    -0.71100
V149        V  0.75393777  0.86677504  0.01280437     1.35200
V150        V  0.70973587  0.86942388  0.00972579     1.35200
C151        C  0.73510211  0.92210170  0.00910279     0.78300
C152        C  0.72871029  0.81388719  0.01325121     0.78300
C153        C  0.73446905  0.86691041  0.92725571     0.78200
C154        C  0.72928435  0.86990905  0.09515099     0.78200
O155        O  0.76533611  0.91086036  0.51060209    -0.71000
O156        O  0.76028836  0.83024260  0.50742773    -0.71200
O157        O  0.76033514  0.87201660  0.44652466    -0.71000
O158        O  0.76510199  0.86895150  0.57175802    -0.71000
O159        O  0.71908910  0.87269947  0.57586163    -0.71000
O160        O  0.71425674  0.87369874  0.45103197    -0.71000
O161        O  0.71447525  0.83304262  0.51437725    -0.71000
O162        O  0.71920173  0.91362632  0.51266214    -0.71100
V163        V  0.76189941  0.87059638  0.50917031     1.35200
V164        V  0.71766805  0.87326909  0.51340997     1.35200
C165        C  0.74306983  0.92598689  0.51137370     0.78300
C166        C  0.73653331  0.81778510  0.51077734     0.78300
C167        C  0.73644809  0.87298072  0.42740936     0.78200
C168        C  0.74276839  0.87005747  0.59509741     0.78200
N169        N  0.33938815  0.32289760  0.99754967    -0.35800
N170        N  0.40065996  0.32376262  0.99931696    -0.56300
N171        N  0.39909431  0.38583529  0.00259610    -0.35800
N172        N  0.33773407  0.38458429  0.00552775    -0.56300
C173        C  0.34619872  0.29568368  0.00848759     0.27800
C174        C  0.31283902  0.32789813  0.01323105     0.27800
C175        C  0.42647822  0.38052348  0.01331191     0.27800
C176        C  0.39318082  0.41272180  0.01508940     0.27800
C177        C  0.39655856  0.29668126  0.98619467     0.36400
C178        C  0.42811710  0.33010146  0.99046706     0.36400
C179        C  0.31035420  0.37915185  0.99521579     0.36400
C180        C  0.34211050  0.41246773  0.99656344     0.36400
C181        C  0.32408188  0.28357669  0.03252219    -0.21100
C182        C  0.30305670  0.30381975  0.03533751    -0.21100
C183        C  0.43819732  0.40430719  0.03274769    -0.21100
C184        C  0.41708785  0.42464976  0.03403342    -0.21100
C185        C  0.42156471  0.28603198  0.96814233    -0.22100
C186        C  0.44163245  0.30708039  0.97153342    -0.22100
C187        C  0.29750001  0.40369293  0.97867076    -0.22100
C188        C  0.31758006  0.42484935  0.98001251    -0.22100
C189        C  0.37115969  0.28128771  0.99462660    -0.17500
C190        C  0.29673192  0.35293400  0.00484102    -0.17500
C191        C  0.36733110  0.42716175  0.00672694    -0.17500
C192        C  0.44159022  0.35557901  0.00263918    -0.17500
H193        H  0.32311332  0.26245881  0.04703077     0.15400
H194        H  0.28288850  0.30090914  0.05187670     0.15400
H195        H  0.45981537  0.40686940  0.04420281     0.15400
H196        H  0.41924677  0.44593910  0.04674721     0.15400
H197        H  0.42538038  0.26541685  0.95392791     0.13700
H198        H  0.46365915  0.30562443  0.96122312     0.13700
H199        H  0.27601776  0.40638701  0.96669909     0.13700
H200        H  0.31448341  0.44683260  0.97007026     0.13700
H201        H  0.35078657  0.33613895  0.97605593     0.27000
H202        H  0.38626003  0.37304532  0.98323491     0.27000
N203        N  0.33750016  0.32506939  0.49439344    -0.35800
N204        N  0.33945483  0.38644385  0.50447813    -0.56300
N205        N  0.40072657  0.38480832  0.48874069    -0.35800
N206        N  0.39854013  0.32325903  0.48293541    -0.56300
C207        C  0.31233990  0.33107405  0.51406409     0.27800
C208        C  0.34392547  0.29764419  0.50462971     0.27800
C209        C  0.39776969  0.41214710  0.50136187     0.27800
C210        C  0.42879804  0.37838028  0.49048284     0.27800
C211        C  0.31086291  0.38308465  0.50149514     0.36400
C212        C  0.34467035  0.41467741  0.50038891     0.36400
C213        C  0.39192160  0.29637141  0.47182504     0.36400
C214        C  0.42532296  0.32790317  0.46846069     0.36400
C215        C  0.30312907  0.30746916  0.53801067    -0.21100
C216        C  0.32309396  0.28647249  0.53227841    -0.21100
C217        C  0.42445350  0.42340876  0.50997540    -0.21100
C218        C  0.44394263  0.40201395  0.50364416    -0.21100
C219        C  0.29808207  0.40958185  0.49559583    -0.22100
C220        C  0.31927357  0.42937023  0.49618895    -0.22100
C221        C  0.41445581  0.28419356  0.44897317    -0.22100
C222        C  0.43581736  0.30404700  0.44763666    -0.22100
C223        C  0.29665754  0.35658192  0.50784136    -0.17500
C224        C  0.36719994  0.28220420  0.48713107    -0.17500
C225        C  0.44127674  0.35232894  0.47790504    -0.17500
C226        C  0.37186760  0.42763187  0.50218322    -0.17500
H227        H  0.28409145  0.30542538  0.55789434     0.15400
H228        H  0.32226454  0.26546147  0.54717547     0.15400
H229        H  0.42968283  0.44488358  0.51924653     0.15400
H230        H  0.46676302  0.40391682  0.50722396     0.15400
H231        H  0.27603007  0.41523319  0.49155196     0.13700
H232        H  0.31597315  0.45209015  0.49370512     0.13700
H233        H  0.41579505  0.26317964  0.43504932     0.13700
H234        H  0.45672901  0.30122735  0.43323540     0.13700
H235        H  0.34779503  0.33782075  0.47092698     0.27000
H236        H  0.38486666  0.37224421  0.47541217     0.27000
N237        N  0.33792516  0.74449922  0.99156521    -0.35800
N238        N  0.33621785  0.68360696  0.01194876    -0.56300
N239        N  0.39790950  0.68153757  0.00920725    -0.35800
N240        N  0.39976946  0.74262741  0.98847326    -0.56300
C241        C  0.31053086  0.73783980  0.98200658     0.27800
C242        C  0.34384257  0.76953645  0.97068075     0.27800
C243        C  0.39274019  0.65438714  0.02227461     0.27800
C244        C  0.42630758  0.68563093  0.01163067     0.27800
C245        C  0.30844239  0.68989035  0.01773678     0.36400
C246        C  0.33995663  0.65673553  0.02713153     0.36400
C247        C  0.39652519  0.77006595  0.97517765     0.36400
C248        C  0.42788551  0.73652096  0.98552786     0.36400
C249        C  0.29936760  0.75848067  0.95383579    -0.21100
C250        C  0.32022515  0.77842628  0.94692144    -0.21100
C251        C  0.41816356  0.64092491  0.03245946    -0.21100
C252        C  0.43924272  0.66075271  0.02668386    -0.21100
C253        C  0.29486904  0.66719065  0.03880740    -0.22100
C254        C  0.31468970  0.64597687  0.04360358    -0.22100
C255        C  0.42279775  0.78095464  0.96226489    -0.22100
C256        C  0.44244879  0.75984600  0.96888205    -0.22100
C257        C  0.29493737  0.71434087  0.99952617    -0.17500
C258        C  0.36997090  0.78465539  0.97216843    -0.17500
C259        C  0.44113205  0.71070609  0.99909049    -0.17500
C260        C  0.36574490  0.64144351  0.02615442    -0.17500
H261        H  0.27855131  0.75897787  0.93874643     0.15400
H262        H  0.31842694  0.79675359  0.92516035     0.15400
H263        H  0.42130150  0.61928753  0.04399882     0.15400
H264        H  0.46161908  0.65702087  0.03274179     0.15400
H265        H  0.27300967  0.66561025  0.04969715     0.13700
H266        H  0.31110742  0.62523363  0.05848917     0.13700
H267        H  0.42777843  0.80118130  0.94695375     0.13700
H268        H  0.46494409  0.76145071  0.96152682     0.13700
H269        H  0.35077928  0.73420551  0.01472131     0.27000
H270        H  0.38325687  0.69570730  0.99609295     0.27000
N271        N  0.34101885  0.74542269  0.49018649    -0.35800
N272        N  0.34156886  0.68429599  0.50509975    -0.56300
N273        N  0.40330424  0.68554801  0.50968089    -0.35800
N274        N  0.40267491  0.74650155  0.49006727    -0.56300
C275        C  0.31464040  0.73765516  0.47746266     0.27800
C276        C  0.34697341  0.77058297  0.47001540     0.27800
C277        C  0.39887136  0.65722402  0.50717176     0.27800
C278        C  0.43102011  0.69032485  0.50015720     0.27800
C279        C  0.31352833  0.68955502  0.51137994     0.36400
C280        C  0.34654338  0.65756414  0.52025818     0.36400
C281        C  0.39682888  0.77454600  0.49378998     0.36400
C282        C  0.42979088  0.74284280  0.50368880     0.36400
C283        C  0.30405028  0.75772602  0.44778096    -0.21100
C284        C  0.32443114  0.77850926  0.44313736    -0.21100
C285        C  0.42442534  0.64381764  0.49702758    -0.21100
C286        C  0.44455266  0.66471062  0.49205210    -0.21100
C287        C  0.30083225  0.66611845  0.53161136    -0.22100
C288        C  0.32149642  0.64567528  0.53594715    -0.22100
C289        C  0.42030833  0.78854490  0.51080724    -0.22100
C290        C  0.44129183  0.76848277  0.51637464    -0.22100
C291        C  0.29927489  0.71410388  0.49478647    -0.17500
C292        C  0.37128071  0.78734991  0.47849542    -0.17500
C293        C  0.44483824  0.71693329  0.50179953    -0.17500
C294        C  0.37282279  0.64305853  0.51618428    -0.17500
H295        H  0.28378108  0.75747652  0.43098275     0.15400
H296        H  0.32276733  0.79723547  0.42218084     0.15400
H297        H  0.42855272  0.62128701  0.49416948     0.15400
H298        H  0.46677130  0.66129752  0.48420468     0.15400
H299        H  0.27901489  0.66334105  0.54201279     0.13700
H300        H  0.31809925  0.62446398  0.54898431     0.13700
H301        H  0.42243880  0.81073473  0.51896058     0.13700
H302        H  0.46253116  0.77226050  0.52864828     0.13700
H303        H  0.35283485  0.73590570  0.51577572     0.27000
H304        H  0.38877507  0.70068958  0.52170679     0.27000
N305        N  0.75941050  0.31885559  0.00079726    -0.35800
N306        N  0.69767964  0.31835867  0.00006938    -0.56300
N307        N  0.69781910  0.38002175  0.00159799    -0.35800
N308        N  0.75930925  0.38038516  0.99785381    -0.56300
C309        C  0.75301257  0.29238717  0.98698588     0.27800
C310        C  0.78559042  0.32532370  0.98486759     0.27800
C311        C  0.67039037  0.37475126  0.99155061     0.27800
C312        C  0.70298257  0.40748056  0.99069409     0.27800
C313        C  0.70316022  0.29104626  0.01179515     0.36400
C314        C  0.67042678  0.32367938  0.01176660     0.36400
C315        C  0.78674268  0.37513265  0.00826164     0.36400
C316        C  0.75402274  0.40756200  0.00911760     0.36400
C317        C  0.77496915  0.28225991  0.96078762    -0.21100
C318        C  0.79550450  0.30305891  0.95937563    -0.21100
C319        C  0.65797796  0.39911623  0.97377713    -0.21100
C320        C  0.67860673  0.41986727  0.97336866    -0.21100
C321        C  0.67924232  0.27916441  0.03179223    -0.22100
C322        C  0.65844102  0.29978080  0.03126135    -0.22100
C323        C  0.79867963  0.39902142  0.02732191    -0.22100
C324        C  0.77799194  0.41970550  0.02720409    -0.22100
C325        C  0.72878026  0.27674454  0.00069167    -0.17500
C326        C  0.80115762  0.34996323  0.99604938    -0.17500
C327        C  0.72844674  0.42198226  0.99982209    -0.17500
C328        C  0.65587204  0.34929865  0.00206386    -0.17500
H329        H  0.77608563  0.26212211  0.94398480     0.15400
H330        H  0.81530486  0.30184738  0.94119247     0.15400
H331        H  0.63616674  0.40184371  0.96316076     0.15400
H332        H  0.67582831  0.44170684  0.96245587     0.15400
H333        H  0.67669510  0.25805555  0.04571754     0.13700
H334        H  0.63697860  0.29748158  0.04385911     0.13700
H335        H  0.81991566  0.40163174  0.04016149     0.13700
H336        H  0.78028442  0.44119645  0.03905861     0.13700
H337        H  0.74805719  0.33038448  0.02422993     0.27000
H338        H  0.71113589  0.36675205  0.02000591     0.27000
N339        N  0.75978875  0.32253253  0.49288172    -0.35800
N340        N  0.75843838  0.38421072  0.48919592    -0.56300
N341        N  0.69660221  0.38211524  0.49756196    -0.35800
N342        N  0.69818548  0.32023149  0.49638253    -0.56300
C343        C  0.78573876  0.32918025  0.47624894     0.27800
C344        C  0.75395771  0.29558199  0.48062474     0.27800
C345        C  0.70024206  0.41025228  0.48956958     0.27800
C346        C  0.66868207  0.37628949  0.49159120     0.27800
C347        C  0.78668136  0.37995220  0.49567628     0.36400
C348        C  0.75303728  0.41179290  0.49853760     0.36400
C349        C  0.70446811  0.29298681  0.50738033     0.36400
C350        C  0.67082998  0.32455452  0.50835105     0.36400
C351        C  0.79603239  0.30657894  0.45186575    -0.21100
C352        C  0.77598472  0.28538008  0.45463061    -0.21100
C353        C  0.67409812  0.42248657  0.47936757    -0.21100
C354        C  0.65436906  0.40100125  0.47976973    -0.21100
C355        C  0.79913219  0.40507479  0.50935373    -0.22100
C356        C  0.77811341  0.42524145  0.50994946    -0.22100
C357        C  0.68098212  0.28018921  0.52725802    -0.22100
C358        C  0.65955161  0.30008591  0.52709029    -0.22100
C359        C  0.80114599  0.35411935  0.48618147    -0.17500
C360        C  0.73036181  0.27946950  0.49572652    -0.17500
C361        C  0.65542796  0.34978565  0.50004835    -0.17500
C362        C  0.72609005  0.42534773  0.49478562    -0.17500
H363        H  0.81591682  0.30538848  0.43386605     0.15400
H364        H  0.77754592  0.26481490  0.43916945     0.15400
H365        H  0.66926266  0.44465246  0.47321076     0.15400
H366        H  0.63183642  0.40356626  0.47360646     0.15400
H367        H  0.82089512  0.40916989  0.51841254     0.13700
H368        H  0.78133905  0.44729295  0.51813600     0.13700
H369        H  0.67907452  0.25890339  0.54075377     0.13700
H370        H  0.63819214  0.29703181  0.53974715     0.13700
H371        H  0.74850462  0.33421022  0.51617591     0.27000
H372        H  0.71166360  0.36841504  0.51110694     0.27000
N373        N  0.75851503  0.74019962  0.01019203    -0.35800
N374        N  0.69724242  0.74006086  0.00675508    -0.56300
N375        N  0.69841945  0.67828429  0.99915955    -0.35800
N376        N  0.75972230  0.67838719  0.00694569    -0.56300
C377        C  0.75149751  0.76616132  0.02578607     0.27800
C378        C  0.78455097  0.73351183  0.02628718     0.27800
C379        C  0.67051364  0.68282904  0.00744329     0.27800
C380        C  0.70361558  0.65030917  0.00645257     0.27800
C381        C  0.70209523  0.76807022  0.99937580     0.36400
C382        C  0.67023515  0.73503588  0.99406129     0.36400
C383        C  0.78732626  0.68449014  0.99881001     0.36400
C384        C  0.75542367  0.65164518  0.99268843     0.36400
C385        C  0.77294000  0.77567505  0.05318809    -0.21100
C386        C  0.79378201  0.75507651  0.05352960    -0.21100
C387        C  0.65773028  0.65734183  0.01976664    -0.21100
C388        C  0.67868701  0.63682169  0.01933520    -0.21100
C389        C  0.67804716  0.78073521  0.98116124    -0.22100
C390        C  0.65774193  0.75992219  0.97866149    -0.22100
C391        C  0.80041747  0.66157161  0.97839766    -0.22100
C392        C  0.78024444  0.64063230  0.97514061    -0.22100
C393        C  0.72723389  0.78208209  0.01274585    -0.17500
C394        C  0.80079337  0.70952443  0.01361889    -0.17500
C395        C  0.72982325  0.63651001  0.99838051    -0.17500
C396        C  0.65605678  0.70887669  0.00022286    -0.17500
H397        H  0.77354711  0.79532796  0.07134019     0.15400
H398        H  0.81341001  0.75596519  0.07198325     0.15400
H399        H  0.63551303  0.65370792  0.02735798     0.15400
H400        H  0.67576185  0.61443655  0.02676103     0.15400
H401        H  0.67493702  0.80253199  0.97058090     0.13700
H402        H  0.63623966  0.76290947  0.96684428     0.13700
H403        H  0.82208680  0.65980671  0.96669515     0.13700
H404        H  0.78342072  0.61973191  0.96135411     0.13700
H405        H  0.74782743  0.72933362  0.98550033     0.27000
H406        H  0.71231397  0.69275246  0.98441058     0.27000
N407        N  0.76411450  0.74278409  0.51207623    -0.35800
N408        N  0.76221465  0.68112886  0.51739666    -0.56300
N409        N  0.70051377  0.68404817  0.50920405    -0.35800
N410        N  0.70240723  0.74566165  0.50829968    -0.56300
C411        C  0.78994206  0.73569599  0.52861077     0.27800
C412        C  0.75834295  0.76971525  0.52481180     0.27800
C413        C  0.70391562  0.65613697  0.51918790     0.27800
C414        C  0.67256378  0.69027918  0.51402930     0.27800
C415        C  0.79035183  0.68490191  0.50956147     0.36400
C416        C  0.75645695  0.65360697  0.50868367     0.36400
C417        C  0.70906668  0.77282398  0.49763695     0.36400
C418        C  0.67533985  0.74162444  0.49503920     0.36400
C419        C  0.80025249  0.75804718  0.55331393    -0.21100
C420        C  0.78034260  0.77949020  0.55090599    -0.21100
C421        C  0.67766113  0.64444930  0.53006831    -0.21100
C422        C  0.65796515  0.66605254  0.52729023    -0.21100
C423        C  0.80237173  0.65955719  0.49549915    -0.22100
C424        C  0.78113403  0.63970061  0.49604279    -0.22100
C425        C  0.68615630  0.78593336  0.47679825    -0.22100
C426        C  0.66467537  0.76620965  0.47567134    -0.22100
C427        C  0.80511028  0.71044443  0.51867581    -0.17500
C428        C  0.73465487  0.78608580  0.51054927    -0.17500
C429        C  0.65962439  0.71659407  0.50303852    -0.17500
C430        C  0.72953631  0.64056206  0.51418945    -0.17500
H431        H  0.81996217  0.75886819  0.57157786     0.15400
H432        H  0.78193107  0.79986027  0.56690345     0.15400
H433        H  0.67282421  0.62249948  0.53794575     0.15400
H434        H  0.63531901  0.66390118  0.53299211     0.15400
H435        H  0.82396869  0.65517619  0.48545408     0.13700
H436        H  0.78384122  0.61757217  0.48770742     0.13700
H437        H  0.68478152  0.80735805  0.46360001     0.13700
H438        H  0.64362508  0.76954475  0.46215701     0.13700
H439        H  0.75275654  0.73124606  0.48882714     0.27000
H440        H  0.71575974  0.69717915  0.49457938     0.27000
O441        O  0.16947128  0.37074061  0.00743495    -0.71000
O442        O  0.25008870  0.37356361  0.01320584    -0.71200
O443        O  0.21159892  0.37553695  0.94782574    -0.71000
O444        O  0.20789790  0.36874242  0.07268660    -0.71000
O445        O  0.21352907  0.32305681  0.06805717    -0.71000
O446        O  0.21005423  0.32961969  0.94310276    -0.71000
O447        O  0.25202804  0.32821992  0.00207079    -0.71000
O448        O  0.17129491  0.32461471  0.00813403    -0.71100
V449        V  0.20980946  0.37129299  0.01024568     1.35200
V450        V  0.21168410  0.32720471  0.00553704     1.35200
C451        C  0.15654318  0.34717618  0.00752235     0.78300
C452        C  0.26496602  0.35152978  0.00693465     0.78300
C453        C  0.21099197  0.35368014  0.92396793     0.78200
C454        C  0.21060181  0.34481436  0.09180206     0.78200
O455        O  0.16931107  0.37245685  0.49851380    -0.71000
O456        O  0.24938708  0.37682989  0.51003848    -0.71200
O457        O  0.21331436  0.37159828  0.44198469    -0.71000
O458        O  0.20558824  0.37775928  0.56649771    -0.71000
O459        O  0.21412607  0.33245263  0.57270403    -0.71000
O460        O  0.20971862  0.32570801  0.44829790    -0.71000
O461        O  0.25212147  0.33110848  0.50651511    -0.71000
O462        O  0.17133091  0.32728412  0.51403098    -0.71100
V463        V  0.20940750  0.37388401  0.50433097     1.35200
V464        V  0.21173102  0.32988649  0.51039881     1.35200
C465        C  0.15652785  0.34917490  0.50528040     0.78300
C466        C  0.26474968  0.35482520  0.50849929     0.78300
C467        C  0.21194856  0.34754898  0.42379766     0.78200
C468        C  0.21019941  0.35622253  0.59086186     0.78200
O469        O  0.92726235  0.32464745  0.99176606    -0.71000
O470        O  0.84643707  0.32612976  0.99376832    -0.71200
O471        O  0.88626970  0.32541402  0.92962747    -0.71000
O472        O  0.88693140  0.32539372  0.05496256    -0.71000
O473        O  0.88829970  0.37161739  0.05401140    -0.71000
O474        O  0.88644817  0.37161541  0.92891564    -0.71000
O475        O  0.84718272  0.37215659  0.99242004    -0.71000
O476        O  0.92791278  0.37080194  0.99055677    -0.71100
V477        V  0.88680467  0.32627785  0.99238223     1.35200
V478        V  0.88749540  0.37064278  0.99144509     1.35200
C479        C  0.94142508  0.34750127  0.99187503     0.78300
C480        C  0.83291109  0.34941194  0.99387019     0.78300
C481        C  0.88551285  0.34858281  0.90796071     0.78200
C482        C  0.88755659  0.34851865  0.07571110     0.78200
O483        O  0.92679568  0.32521895  0.49448891    -0.71000
O484        O  0.84588311  0.32896042  0.49103030    -0.71200
O485        O  0.88773568  0.32569124  0.43002461    -0.71000
O486        O  0.88498249  0.32823984  0.55505578    -0.71000
O487        O  0.88526189  0.37434009  0.55194092    -0.71000
O488        O  0.89143042  0.37166458  0.42710322    -0.71000
O489        O  0.84815771  0.37472104  0.48423508    -0.71000
O490        O  0.92850854  0.37129496  0.49419728    -0.71100
V491        V  0.88638519  0.32788550  0.49251656     1.35200
V492        V  0.88830048  0.37211550  0.48946866     1.35200
C493        C  0.94150467  0.34771093  0.49549915     0.78300
C494        C  0.83306295  0.35257774  0.48688676     0.78300
C495        C  0.89034359  0.34823173  0.40718966     0.78200
C496        C  0.88444396  0.35171225  0.57494668     0.78200
C497        C  0.86731101  0.37011761  0.79030121    -0.13500
C498        C  0.88290540  0.35012137  0.76613211     0.16900
C499        C  0.89943934  0.32946491  0.78890181     0.03100
C500        C  0.89905301  0.32867257  0.83523887    -0.12000
C501        C  0.88364559  0.34883201  0.85930975    -0.03100
C502        C  0.86753139  0.36963136  0.83648774     0.02400
C503        C  0.88116361  0.35087638  0.71721582     0.09200
N504        N  0.91752361  0.30998316  0.76564014     0.65600
H505        H  0.91192163  0.31303449  0.85263324     0.18500
N506        N  0.85024065  0.38955527  0.85979146     0.76100
H507        H  0.85439905  0.38584054  0.77315285     0.10000
C508        C  0.87195891  0.32709572  0.69308187     0.03700
C509        C  0.87348482  0.32788213  0.64684502    -0.05000
C510        C  0.88285905  0.35230586  0.62387414    -0.23400
C511        C  0.89086533  0.37642417  0.64821428     0.12900
C512        C  0.89014218  0.37541590  0.69440736    -0.12600
N513        N  0.86060964  0.30228629  0.71493074     0.64600
H514        H  0.86663068  0.30943531  0.62868422     0.12500
N515        N  0.90086243  0.40172778  0.62670950     0.61300
H516        H  0.89721085  0.39375571  0.71265809     0.08600
O517        O  0.82708157  0.38155932  0.87706871    -0.40200
O518        O  0.85648592  0.41564282  0.85894334    -0.39400
O519        O  0.93238171  0.31858089  0.73336795    -0.39400
O520        O  0.92116276  0.28498852  0.78030607    -0.37100
O521        O  0.88340245  0.42099217  0.61585688    -0.38000
O522        O  0.92721656  0.40667563  0.62478826    -0.34100
O523        O  0.84268614  0.30485478  0.74575945    -0.35500
O524        O  0.86622246  0.27780696  0.70057186    -0.39800
C525        C  0.86921098  0.33163340  0.19474501    -0.13500
C526        C  0.89048671  0.34663952  0.21674511     0.16900
C527        C  0.91075695  0.36226734  0.19224884     0.03100
C528        C  0.90892224  0.36344991  0.14621140    -0.12000
C529        C  0.88764099  0.34847912  0.12415845    -0.03100
C530        C  0.86756591  0.33253364  0.14863585     0.02400
C531        C  0.89027082  0.34715816  0.26538632     0.09200
N532        N  0.93397245  0.37592132  0.21368673     0.65600
H533        H  0.92473369  0.37528138  0.12756652     0.18500
N534        N  0.84454351  0.31851819  0.12718854     0.76100
H535        H  0.85332681  0.31994728  0.21354467     0.10000
C536        C  0.88234494  0.37191825  0.28817475     0.03700
C537        C  0.88344399  0.37202002  0.33433005    -0.05000
C538        C  0.89136013  0.34752297  0.35838672    -0.23400
C539        C  0.89914821  0.32275903  0.33526711     0.12900
C540        C  0.89858955  0.32281371  0.28910187    -0.12600
N541        N  0.87204575  0.39663535  0.26498817     0.64600
H542        H  0.87693265  0.39104767  0.35150553     0.12500
N543        N  0.90860685  0.29770935  0.35803655     0.61300
H544        H  0.90493537  0.30384149  0.27162074     0.08600
O545        O  0.82570744  0.33301805  0.10753806    -0.40200
O546        O  0.84130342  0.29202184  0.13195670    -0.39400
O547        O  0.95441898  0.36114634  0.22826182    -0.39400
O548        O  0.93612394  0.40265949  0.21217095    -0.37100
O549        O  0.89171057  0.27717914  0.36386266    -0.38000
O550        O  0.93478105  0.29427372  0.36556212    -0.34100
O551        O  0.85156974  0.39448588  0.23840754    -0.35500
O552        O  0.88091090  0.42101550  0.27506605    -0.39800
C553        C  0.01871728  0.32210665  0.49737592    -0.13500
C554        C  0.03320868  0.34749469  0.50611353     0.16900
C555        C  0.01736998  0.37280234  0.51115702     0.03100
C556        C  0.98771941  0.37233548  0.50684852    -0.12000
C557        C  0.97308424  0.34691042  0.49858329    -0.03100
C558        C  0.98898583  0.32153737  0.49394358     0.02400
C559        C  0.06489140  0.34763868  0.50658386     0.09200
N560        N  0.03103001  0.39903570  0.52171747     0.65600
H561        H  0.97604120  0.39201950  0.51107722     0.18500
N562        N  0.97545361  0.29513033  0.48458347     0.76100
H563        H  0.03060556  0.30263507  0.49230122     0.10000
C564        C  0.08067547  0.32811004  0.53258064     0.03700
C565        C  0.11050791  0.32812425  0.53032972    -0.05000
C566        C  0.12507814  0.34783381  0.50345909    -0.23400
C567        C  0.10926540  0.36700586  0.47688711     0.12900
C568        C  0.07950659  0.36669080  0.47863630    -0.12600
N569        N  0.06677573  0.30900225  0.56278917     0.64600
H570        H  0.12235997  0.31347800  0.55120951     0.12500
N571        N  0.12306668  0.38614039  0.44662039     0.61300
H572        H  0.06769702  0.38104860  0.45722593     0.08600
O573        O  0.97126180  0.27722154  0.51526365    -0.40200
O574        O  0.97173354  0.28797441  0.44505975    -0.39400
O575        O  0.02658380  0.42102330  0.49839660    -0.39400
O576        O  0.04561687  0.40085676  0.55643844    -0.37100
O577        O  0.13639738  0.37650014  0.41379547    -0.38000
O578        O  0.11948884  0.41263219  0.45007544    -0.34100
O579        O  0.07199984  0.28267867  0.56156723    -0.35500
O580        O  0.05123355  0.31865722  0.59319566    -0.39800
C581        C  0.20942634  0.38249820  0.80547898    -0.13500
C582        C  0.20887357  0.35714671  0.78151418     0.16900
C583        C  0.20974134  0.33089649  0.80458511     0.03100
C584        C  0.21108957  0.33046185  0.85067860    -0.12000
C585        C  0.21115797  0.35574585  0.87494492    -0.03100
C586        C  0.21059367  0.38206926  0.85172536     0.02400
C587        C  0.20929355  0.35826169  0.73245151     0.09200
N588        N  0.20859386  0.30444408  0.78170552     0.65600
H589        H  0.21145726  0.31001724  0.86757423     0.18500
N590        N  0.21153901  0.40855236  0.87433918     0.76100
H591        H  0.20952741  0.40279456  0.78812153     0.10000
C592        C  0.18912744  0.37418694  0.70787925     0.03700
C593        C  0.19059285  0.37451788  0.66156137    -0.05000
C594        C  0.21127705  0.35853904  0.63932918    -0.23400
C595        C  0.23193303  0.34347734  0.66389495     0.12900
C596        C  0.23082476  0.34354781  0.70997811    -0.12600
N597        N  0.16627996  0.38888519  0.72929964     0.64600
H598        H  0.17458366  0.38604556  0.64285251     0.12500
N599        N  0.25494275  0.32914241  0.64244182     0.61300
H600        H  0.24713727  0.33227999  0.72842785     0.08600
O601        O  0.19000540  0.42464069  0.87433616    -0.40200
O602        O  0.23497147  0.41768324  0.88853965    -0.39400
O603        O  0.22708056  0.28546585  0.78908405    -0.39400
O604        O  0.18813775  0.29930887  0.75616997    -0.37100
O605        O  0.27239439  0.34322881  0.61923192    -0.38000
O606        O  0.25996374  0.30329681  0.65117285    -0.34100
O607        O  0.16041294  0.41421426  0.71835131    -0.35500
O608        O  0.15034146  0.37581674  0.75630774    -0.39800
C609        C  0.21963526  0.31868102  0.21070010    -0.13500
C610        C  0.20625286  0.34067838  0.23378834     0.16900
C611        C  0.19367814  0.36340116  0.21012813     0.03100
C612        C  0.19574765  0.36436267  0.16404519    -0.12000
C613        C  0.20957014  0.34268525  0.14067274    -0.03100
C614        C  0.22145288  0.31949775  0.16448255     0.02400
C615        C  0.20827383  0.34144761  0.28251325     0.09200
N616        N  0.17841978  0.38541347  0.23254554     0.65600
H617        H  0.18590979  0.38195205  0.14633818     0.18500
N618        N  0.23727703  0.29778844  0.14265524     0.76100
H619        H  0.22984959  0.30145326  0.22876641     0.10000
C620        C  0.19565843  0.32041835  0.30958635     0.03700
C621        C  0.19788321  0.32221633  0.35557856    -0.05000
C622        C  0.21226416  0.34497901  0.37518215    -0.23400
C623        C  0.22565483  0.36550264  0.34786001     0.12900
C624        C  0.22342774  0.36365349  0.30197430    -0.12600
N625        N  0.17931702  0.29801448  0.29087019     0.64600
H626        H  0.18734801  0.30634917  0.37604869     0.12500
N627        N  0.24254257  0.38765695  0.36614395     0.61300
H628        H  0.23383395  0.37950925  0.28130190     0.08600
O629        O  0.22866733  0.27239332  0.14418785    -0.40200
O630        O  0.26226675  0.30298405  0.12960654    -0.39400
O631        O  0.18199451  0.41114617  0.22156777    -0.39400
O632        O  0.15982273  0.37906969  0.26115837    -0.37100
O633        O  0.26720664  0.38212886  0.38024150    -0.38000
O634        O  0.23429009  0.41317125  0.36330230    -0.34100
O635        O  0.18740807  0.27252502  0.29521452    -0.35500
O636        O  0.15538208  0.30341611  0.27393877    -0.39800
C637        C  0.07940046  0.32244655  0.01509306    -0.13500
C638        C  0.06508116  0.34538570  0.99477704     0.16900
C639        C  0.08109061  0.36896928  0.97944116     0.03100
C640        C  0.11063473  0.36937385  0.98556862    -0.12000
C641        C  0.12500354  0.34633303  0.00537058    -0.03100
C642        C  0.10907577  0.32262186  0.02039126     0.02400
C643        C  0.03333707  0.34551775  0.99319652     0.09200
N644        N  0.06780261  0.39229296  0.95641372     0.65600
H645        H  0.12260112  0.38744877  0.97307188     0.18500
N646        N  0.12245415  0.29914213  0.04274829     0.76100
H647        H  0.06734561  0.30464620  0.02830444     0.10000
C648        C  0.01764198  0.32217450  0.97736137     0.03700
C649        C  0.98776486  0.32296183  0.97830153    -0.05000
C650        C  0.97299881  0.34692343  0.99368528    -0.23400
C651        C  0.98874091  0.37005410  0.01006293     0.12900
C652        C  0.01851116  0.36904705  0.00988806    -0.12600
N653        N  0.03165245  0.29795933  0.95889515     0.64600
H654        H  0.97604242  0.30508648  0.96543680     0.12500
N655        N  0.97489669  0.39419423  0.02888667     0.61300
H656        H  0.03016787  0.38663751  0.02378120     0.08600
O657        O  0.11764555  0.27402554  0.03064638    -0.40200
O658        O  0.13637513  0.30323144  0.07762887    -0.39400
O659        O  0.07452344  0.41756787  0.96521108    -0.39400
O660        O  0.05100157  0.38767341  0.92491894    -0.37100
O661        O  0.96197224  0.39159884  0.06526873    -0.38000
O662        O  0.97905196  0.41869195  0.01265819    -0.34100
O663        O  0.02490457  0.27318237  0.97151053    -0.35500
O664        O  0.04904985  0.30116354  0.92740929    -0.39800
C665        C  0.71514774  0.50395929  0.46674084    -0.13500
C666        C  0.72553206  0.51707259  0.50495932     0.16900
C667        C  0.73463349  0.49942826  0.54057982     0.03100
C668        C  0.73224683  0.46983361  0.53740693    -0.12000
C669        C  0.72491184  0.45702043  0.49753051    -0.03100
C670        C  0.71689904  0.47443302  0.46129602     0.02400
C671        C  0.72646060  0.54893183  0.50687337     0.09200
N672        N  0.74807615  0.51084201  0.57890334     0.65600
H673        H  0.73842591  0.45653823  0.56525925     0.18500
N674        N  0.71100441  0.46262520  0.41876347     0.76100
H675        H  0.70691978  0.51685660  0.43984497     0.10000
C676        C  0.73428946  0.56590630  0.46964998     0.03700
C677        C  0.73313276  0.59558506  0.47228466    -0.05000
C678        C  0.72797071  0.60898507  0.51248730    -0.23400
C679        C  0.72157653  0.59232693  0.55015295     0.12900
C680        C  0.71893281  0.56278147  0.54623932    -0.12600
N681        N  0.74505115  0.55362544  0.42980397     0.64600
H682        H  0.73833185  0.60840452  0.44339980     0.12500
N683        N  0.71854874  0.60506896  0.59263362     0.61300
H684        H  0.71203460  0.55056057  0.57479667     0.08600
O685        O  0.72661576  0.44316980  0.40350262    -0.40200
O686        O  0.69209847  0.47361039  0.39439931    -0.39400
O687        O  0.74187061  0.50119058  0.61678208    -0.39400
O688        O  0.76889302  0.52757912  0.57456918    -0.37100
O689        O  0.73848576  0.61992032  0.60787975    -0.38000
O690        O  0.69762199  0.59879303  0.61705474    -0.34100
O691        O  0.73705554  0.56320781  0.39276165    -0.35500
O692        O  0.76514468  0.53577476  0.43146861    -0.39800
C693        C  0.71540714  0.49906571  0.02995637    -0.13500
C694        C  0.72921899  0.51341113  0.99510400     0.16900
C695        C  0.74257596  0.49756807  0.96151048     0.03100
C696        C  0.74181604  0.46776688  0.96359779    -0.12000
C697        C  0.72850338  0.45352209  0.99890733    -0.03100
C698        C  0.71509624  0.46928233  0.03234365     0.02400
C699        C  0.72927901  0.54493760  0.99464139     0.09200
N700        N  0.75738160  0.51133468  0.92570181     0.65600
H701        H  0.75209172  0.45556067  0.93793914     0.18500
N702        N  0.70146362  0.45532516  0.06903747     0.76100
H703        H  0.70511915  0.51115195  0.05574081     0.10000
C704        C  0.71569436  0.56105668  0.96102963     0.03700
C705        C  0.71675509  0.59090400  0.96222496    -0.05000
C706        C  0.73051293  0.60489203  0.99671105    -0.23400
C707        C  0.74417523  0.58872236  0.02988015     0.12900
C708        C  0.74351764  0.55900880  0.02855534    -0.12600
N709        N  0.70016535  0.54755955  0.92637420     0.64600
H710        H  0.70612756  0.60334269  0.93682064     0.12500
N711        N  0.75807635  0.60225467  0.06579468     0.61300
H712        H  0.75403154  0.54679232  0.05434631     0.08600
O713        O  0.67680269  0.46279585  0.08085037    -0.40200
O714        O  0.71470970  0.43681344  0.09150118    -0.39400
O715        O  0.77507423  0.53082127  0.93322763    -0.39400
O716        O  0.75492126  0.50215578  0.88694911    -0.37100
O717        O  0.74377694  0.60976862  0.09898841    -0.38000
O718        O  0.78489738  0.60289196  0.06720660    -0.34100
O719        O  0.68354914  0.52717371  0.93508430    -0.35500
O720        O  0.70090888  0.55772649  0.88763802    -0.39800
C721        C  0.52138472  0.73013875  0.46541245    -0.13500
C722        C  0.53656625  0.71640191  0.49928662     0.16900
C723        C  0.52155621  0.70354587  0.53461954     0.03100
C724        C  0.49177507  0.70458404  0.53548899    -0.12000
C725        C  0.47653701  0.71757318  0.50095362    -0.03100
C726        C  0.49156485  0.73053719  0.46567672     0.02400
C727        C  0.56808750  0.71705780  0.49874916     0.09200
N728        N  0.53630213  0.68865606  0.56911101     0.65600
H729        H  0.48039961  0.69455332  0.56266109     0.18500
N730        N  0.47679786  0.74373154  0.42961000     0.76100
H731        H  0.53276795  0.74041754  0.43847912     0.10000
C732        C  0.58397363  0.70384536  0.46515031     0.03700
C733        C  0.61377852  0.70437238  0.46640117    -0.05000
C734        C  0.62805008  0.71799673  0.50074464    -0.23400
C735        C  0.61215860  0.73172651  0.53375175     0.12900
C736        C  0.58241054  0.73115346  0.53255486    -0.12600
N737        N  0.57011461  0.68880682  0.43069896     0.64600
H738        H  0.62586602  0.69365820  0.44100250     0.12500
N739        N  0.62601982  0.74556687  0.56939427     0.61300
H740        H  0.57039525  0.74157171  0.55833739     0.08600
O741        O  0.48082573  0.76969304  0.42058066    -0.40200
O742        O  0.46168359  0.72891476  0.40442967    -0.39400
O743        O  0.53302315  0.69597432  0.60871507    -0.39400
O744        O  0.55047945  0.66656889  0.56046387    -0.37100
O745        O  0.62943017  0.77217590  0.56806227    -0.38000
O746        O  0.63083236  0.73198692  0.60476202    -0.34100
O747        O  0.56783581  0.70013378  0.39291296    -0.35500
O748        O  0.56424805  0.66281347  0.43604300    -0.39800
C749        C  0.51811311  0.72698440  0.02802606    -0.13500
C750        C  0.53290727  0.70834001  0.00020423     0.16900
C751        C  0.51734241  0.68951194  0.97338055     0.03100
C752        C  0.48758163  0.69150211  0.97241520    -0.12000
C753        C  0.47285114  0.70988708  0.00060074    -0.03100
C754        C  0.48830785  0.72727962  0.02959718     0.02400
C755        C  0.56453694  0.70929944  0.99933498     0.09200
N756        N  0.53127532  0.66782533  0.94808743     0.65600
H757        H  0.47565261  0.67777644  0.95082824     0.18500
N758        N  0.47403954  0.74516638  0.06078906     0.76100
H759        H  0.52986928  0.74112961  0.04918170     0.10000
C760        C  0.58007468  0.71213616  0.95932137     0.03700
C761        C  0.60988621  0.71077707  0.96029152    -0.05000
C762        C  0.62450665  0.70899752  0.00038903    -0.23400
C763        C  0.60914330  0.70778289  0.04029280     0.12900
C764        C  0.57938918  0.70710625  0.03941226    -0.12600
N765        N  0.56607723  0.71732607  0.91787535     0.64600
H766        H  0.62187844  0.71238387  0.92976115     0.12500
N767        N  0.62358018  0.70760873  0.08181757     0.61300
H768        H  0.56777602  0.70530503  0.07027046     0.08600
O769        O  0.48301615  0.76999334  0.06768381    -0.40200
O770        O  0.45387451  0.73545148  0.08408049    -0.39400
O771        O  0.55178404  0.65388133  0.96437019    -0.39400
O772        O  0.52114756  0.66035693  0.91150870    -0.37100
O773        O  0.63923464  0.72825291  0.09209972    -0.38000
O774        O  0.61925748  0.68777441  0.10945333    -0.34100
O775        O  0.54548407  0.73456863  0.91545241    -0.35500
O776        O  0.57623544  0.70721094  0.88277540    -0.39800
C777        C  0.51963512  0.35631008  0.44704947    -0.13500
C778        C  0.53246519  0.34574840  0.48583998     0.16900
C779        C  0.51498461  0.33686978  0.52148452     0.03100
C780        C  0.48536225  0.33912537  0.51792571    -0.12000
C781        C  0.47271723  0.34961516  0.47924381    -0.03100
C782        C  0.48995511  0.35810294  0.44348372     0.02400
C783        C  0.56402103  0.34584016  0.48970982     0.09200
N784        N  0.52696373  0.32524745  0.56124471     0.65600
H785        H  0.47204002  0.33248575  0.54542966     0.18500
N786        N  0.47752502  0.36884893  0.40368340     0.76100
H787        H  0.53273452  0.36361536  0.41970616     0.10000
C788        C  0.58165327  0.33260647  0.45812412     0.03700
C789        C  0.61131604  0.33410551  0.46231993    -0.05000
C790        C  0.62383338  0.34802519  0.49796758    -0.23400
C791        C  0.60629525  0.36105766  0.52964854     0.12900
C792        C  0.57667214  0.36029321  0.52487962    -0.12600
N793        N  0.56979449  0.31716894  0.42215235     0.64600
H794        H  0.62475125  0.32410794  0.43782796     0.12500
N795        N  0.61832157  0.37496119  0.56687263     0.61300
H796        H  0.56342774  0.37088989  0.54899182     0.08600
O797        O  0.47337304  0.39521362  0.39867118    -0.40200
O798        O  0.46956647  0.35189299  0.37428281    -0.39400
O799        O  0.51878780  0.33420206  0.59828188    -0.39400
O800        O  0.54401812  0.30450007  0.55957928    -0.37100
O801        O  0.61363845  0.40107406  0.57285903    -0.38000
O802        O  0.63079109  0.36049582  0.59638521    -0.34100
O803        O  0.57848385  0.32181249  0.38327850    -0.35500
O804        O  0.55241320  0.29722954  0.42953363    -0.39800
C805        C  0.36299616  0.50612318  0.47363856    -0.13500
C806        C  0.37432179  0.51932840  0.51108216     0.16900
C807        C  0.38464704  0.50186774  0.54607944     0.03100
C808        C  0.38257487  0.47217838  0.54313045    -0.12000
C809        C  0.37322750  0.45929374  0.50432478    -0.03100
C810        C  0.36412727  0.47659249  0.46866719     0.02400
C811        C  0.37457246  0.55115789  0.51283138     0.09200
N812        N  0.39832624  0.51368708  0.58388482     0.65600
H813        H  0.38959274  0.45894305  0.57055352     0.18500
N814        N  0.35571173  0.46444724  0.42747573     0.76100
H815        H  0.35403278  0.51892332  0.44718251     0.10000
C816        C  0.38164018  0.56798845  0.47523347     0.03700
C817        C  0.37888615  0.59756074  0.47692930    -0.05000
C818        C  0.37280548  0.61132777  0.51659368    -0.23400
C819        C  0.36721934  0.59483270  0.55496685     0.12900
C820        C  0.36645796  0.56503369  0.55186842    -0.12600
N821        N  0.39299910  0.55565482  0.43579352     0.64600
H822        H  0.38344868  0.61017960  0.44757368     0.12500
N823        N  0.36257149  0.60785431  0.59707739     0.61300
H824        H  0.36027243  0.55261551  0.58062202     0.08600
O825        O  0.37079263  0.44543240  0.40982973    -0.40200
O826        O  0.33453490  0.47434029  0.40681232    -0.39400
O827        O  0.39268596  0.50416201  0.62204642    -0.39400
O828        O  0.41835021  0.53129722  0.57887685    -0.37100
O829        O  0.37734173  0.62888494  0.60851614    -0.38000
O830        O  0.34542436  0.59687529  0.62452878    -0.34100
O831        O  0.38499122  0.56465922  0.39842284    -0.35500
O832        O  0.41337397  0.53815205  0.43813637    -0.39800
C833        C  0.51729131  0.34288474  0.04128039    -0.13500
C834        C  0.53289878  0.35410524  0.00562272     0.16900
C835        C  0.51840270  0.36627451  0.96937325     0.03100
C836        C  0.48864180  0.36721580  0.96934253    -0.12000
C837        C  0.47307066  0.35596825  0.00495592    -0.03100
C838        C  0.48748704  0.34383017  0.04130560     0.02400
C839        C  0.56429961  0.35232116  0.00606275     0.09200
N840        N  0.53370628  0.37770206  0.93241752     0.65600
H841        H  0.47759961  0.37636205  0.94120075     0.18500
N842        N  0.47205694  0.33227712  0.07816787     0.76100
H843        H  0.52832561  0.33334623  0.06911605     0.10000
C844        C  0.58054747  0.36908170  0.03465326     0.03700
C845        C  0.61027394  0.36759967  0.03313625    -0.05000
C846        C  0.62420260  0.34975840  0.00311144    -0.23400
C847        C  0.60789130  0.33281775  0.97453681     0.12900
C848        C  0.57810817  0.33401847  0.97673836    -0.12600
N849        N  0.56712252  0.38835938  0.06431970     0.64600
H850        H  0.62261195  0.38064663  0.05519661     0.12500
N851        N  0.62120560  0.31499282  0.94238360     0.61300
H852        H  0.56561310  0.32115034  0.95464618     0.08600
O853        O  0.47598350  0.30677328  0.09017329    -0.40200
O854        O  0.45535641  0.34785244  0.09993417    -0.39400
O855        O  0.53740753  0.36276532  0.89857896    -0.39400
O856        O  0.53985510  0.40380531  0.93110407    -0.37100
O857        O  0.61233452  0.28998628  0.93674950    -0.38000
O858        O  0.63997670  0.32502485  0.91671836    -0.34100
O859        O  0.56109020  0.38025157  0.10306770    -0.35500
O860        O  0.56541666  0.41441956  0.05417499    -0.39800
C861        C  0.35594952  0.56594432  0.98740266    -0.13500
C862        C  0.36363619  0.54985650  0.02481940     0.16900
C863        C  0.37102242  0.56406080  0.06412475     0.03100
C864        C  0.37060595  0.59399047  0.06479896    -0.12000
C865        C  0.36419762  0.60985130  0.02659771    -0.03100
C866        C  0.35649416  0.59564509  0.98785262     0.02400
C867        C  0.36411680  0.51835290  0.02121881     0.09200
N868        N  0.37990609  0.54859164  0.10287580     0.65600
H869        H  0.37644245  0.60498724  0.09461205     0.18500
N870        N  0.34972686  0.61125676  0.94840187     0.76100
H871        H  0.35008360  0.55530336  0.95726654     0.10000
C872        C  0.34718404  0.50043853  0.04841706     0.03700
C873        C  0.34888836  0.47081133  0.04341016    -0.05000
C874        C  0.36628095  0.45871932  0.01085510    -0.23400
C875        C  0.38281010  0.47666297  0.98343989     0.12900
C876        C  0.38186417  0.50614120  0.98920332    -0.12600
N877        N  0.32776852  0.51188644  0.08035677     0.64600
H878        H  0.33610317  0.45705154  0.06443771     0.12500
N879        N  0.40012476  0.46526707  0.94896988     0.61300
H880        H  0.39479311  0.51969646  0.96805016     0.08600
O881        O  0.32504612  0.60991716  0.93233078    -0.40200
O882        O  0.36854369  0.62599197  0.92910056    -0.39400
O883        O  0.39735936  0.52824831  0.09981814    -0.39400
O884        O  0.37252918  0.55698521  0.14063303    -0.37100
O885        O  0.38855685  0.45404481  0.91598983    -0.38000
O886        O  0.42660659  0.46965505  0.94868751    -0.34100
O887        O  0.31207795  0.53282550  0.07042832    -0.35500
O888        O  0.32419746  0.49935547  0.11704027    -0.39800
C889        C  0.76444029  0.87786803  0.71501240    -0.13500
C890        C  0.74331104  0.86167512  0.73651203     0.16900
C891        C  0.72270754  0.84765789  0.71101379     0.03100
C892        C  0.72278083  0.85107064  0.66508656    -0.12000
C893        C  0.74380970  0.86728582  0.64362011    -0.03100
C894        C  0.76505594  0.88044133  0.66886468     0.02400
C895        C  0.74123963  0.86191533  0.78546204     0.09200
N896        N  0.70198628  0.82939977  0.73131832     0.65600
H897        H  0.70670467  0.84034555  0.64592512     0.18500
N898        N  0.78621828  0.89795930  0.64832128     0.76100
H899        H  0.78006516  0.88919801  0.73419464     0.10000
C900        C  0.76453501  0.85469386  0.81264920     0.03700
C901        C  0.76198729  0.85708108  0.85859360    -0.05000
C902        C  0.73629960  0.86573505  0.87836958    -0.23400
C903        C  0.71300868  0.87280912  0.85095092     0.12900
C904        C  0.71580540  0.87116534  0.80508181    -0.12600
N905        N  0.79052026  0.84400878  0.79424304     0.64600
H906        H  0.78000431  0.85121975  0.87900515     0.12500
N907        N  0.68656900  0.88241686  0.86889864     0.61300
H908        H  0.69797393  0.87744215  0.78454683     0.08600
O909        O  0.80978921  0.88730901  0.63711981    -0.40200
O910        O  0.78270524  0.92456069  0.64625054    -0.39400
O911        O  0.67584391  0.83321702  0.72385767    -0.39400
O912        O  0.70992433  0.80785592  0.75334114    -0.37100
O913        O  0.66698926  0.86469912  0.87656352    -0.38000
O914        O  0.68082684  0.90864265  0.86843087    -0.34100
O915        O  0.81410823  0.85400119  0.80629298    -0.35500
O916        O  0.79009908  0.82269936  0.76934089    -0.39800
C917        C  0.70511021  0.86845428  0.21540024    -0.13500
C918        C  0.72949215  0.87878035  0.23656492     0.16900
C919        C  0.75328498  0.88680836  0.21072626     0.03100
C920        C  0.75278409  0.88312005  0.16499820    -0.12000
C921        C  0.72850888  0.87273964  0.14377446    -0.03100
C922        C  0.70424651  0.86585956  0.16936224     0.02400
C923        C  0.73102534  0.87821608  0.28563215     0.09200
N924        N  0.77790323  0.89925809  0.23040046     0.65600
H925        H  0.77130304  0.88926543  0.14574912     0.18500
N926        N  0.67904777  0.85505336  0.14940702     0.76100
H927        H  0.68685767  0.86171932  0.23477800     0.10000
C928        C  0.70951055  0.89015055  0.31235219     0.03700
C929        C  0.71119310  0.88736427  0.35843891    -0.05000
C930        C  0.73442140  0.87362168  0.37865801    -0.23400
C931        C  0.75576729  0.86154965  0.35187837     0.12900
C932        C  0.75381580  0.86384375  0.30594023    -0.12600
N933        N  0.68649723  0.90608421  0.29333479     0.64600
H934        H  0.69478189  0.89698631  0.37858619     0.12500
N935        N  0.77887614  0.84573745  0.37070218     0.61300
H936        H  0.76993572  0.85366317  0.28589447     0.08600
O937        O  0.65959830  0.87201563  0.13752640    -0.40200
O938        O  0.67431970  0.82864429  0.15011205    -0.39400
O939        O  0.80245099  0.89028760  0.22071390    -0.39400
O940        O  0.77529430  0.92077038  0.25459379    -0.37100
O941        O  0.77417024  0.82227602  0.39005349    -0.38000
O942        O  0.80418082  0.85354241  0.36369147    -0.34100
O943        O  0.66117026  0.90074104  0.30461605    -0.35500
O944        O  0.69160304  0.92735297  0.26875394    -0.39800
C945        C  0.72374987  0.06296731  0.53749363    -0.13500
C946        C  0.74669828  0.04866263  0.51815876     0.16900
C947        C  0.76924383  0.06451011  0.49920997     0.03100
C948        C  0.76813951  0.09437174  0.49955018    -0.12000
C949        C  0.74457914  0.10869894  0.51741572    -0.03100
C950        C  0.72263992  0.09268872  0.53768893     0.02400
C951        C  0.74623874  0.01717245  0.51738188     0.09200
N952        N  0.79251102  0.05066366  0.47744762     0.65600
H953        H  0.78504447  0.10638362  0.48366609     0.18500
N954        N  0.69953312  0.10632087  0.55986903     0.76100
H955        H  0.70666629  0.05091730  0.55285396     0.10000
C956        C  0.76665908  0.00043200  0.53994236     0.03700
C957        C  0.76605091  0.97069836  0.53595713    -0.05000
C958        C  0.74480207  0.95736346  0.51123859    -0.23400
C959        C  0.72444606  0.97421381  0.48883296     0.12900
C960        C  0.72524488  0.00384449  0.49234481    -0.12600
N961        N  0.78711415  0.01317560  0.56857513     0.64600
H962        H  0.78139110  0.95786319  0.55398390     0.12500
N963        N  0.70369048  0.96161826  0.46072938     0.61300
H964        H  0.70980692  0.01664463  0.47444579     0.08600
O965        O  0.70352146  0.11740403  0.59703173    -0.40200
O966        O  0.67461021  0.10443552  0.54487574    -0.39400
O967        O  0.78774912  0.03282463  0.44760576    -0.39400
O968        O  0.81772658  0.05857879  0.48438227    -0.37100
O969        O  0.67763085  0.96725265  0.46588628    -0.38000
O970        O  0.71162391  0.94766224  0.42755963    -0.34100
O971        O  0.77909881  0.03075758  0.59722964    -0.35500
O972        O  0.81249624  0.00433547  0.56901575    -0.39800
C973        C  0.71011305  0.20203993  0.80149314    -0.13500
C974        C  0.73340893  0.19047318  0.77879056     0.16900
C975        C  0.75660177  0.17932102  0.80289077     0.03100
C976        C  0.75611916  0.18014237  0.84909511    -0.12000
C977        C  0.73265060  0.19136346  0.87192338    -0.03100
C978        C  0.70958629  0.20284347  0.84769219     0.02400
C979        C  0.73386477  0.19189746  0.72989711     0.09200
N980        N  0.78033657  0.16638009  0.78095181     0.65600
H981        H  0.77384423  0.17111941  0.86731479     0.18500
N982        N  0.68636441  0.21689902  0.86923714     0.76100
H983        H  0.69265932  0.21143092  0.78306864     0.10000
C984        C  0.71192524  0.17978656  0.70468998     0.03700
C985        C  0.71229965  0.18304744  0.65868940    -0.05000
C986        C  0.73457073  0.19748094  0.63708776    -0.23400
C987        C  0.75623571  0.21003542  0.66239425     0.12900
C988        C  0.75574151  0.20700672  0.70843787    -0.12600
N989        N  0.68987386  0.16311387  0.72513484     0.64600
H990        H  0.69577719  0.17300322  0.63956459     0.12500
N991        N  0.77813368  0.22687291  0.64203065     0.61300
H992        H  0.77216414  0.21709946  0.72771962     0.08600
O993        O  0.66107298  0.21144769  0.85839787    -0.40200
O994        O  0.69116205  0.23753576  0.89437988    -0.39400
O995        O  0.80542303  0.17215454  0.79248449    -0.39400
O996        O  0.77627570  0.14761065  0.75224679    -0.37100
O997        O  0.77159961  0.24843172  0.61891811    -0.38000
O998        O  0.80393570  0.22203689  0.65084131    -0.34100
O999        O  0.66441675  0.16584935  0.71261720    -0.35500
O1000       O  0.69612317  0.14372213  0.75265230    -0.39800
C1001       C  0.76244908  0.18447629  0.30114475    -0.13500
C1002       C  0.73893930  0.19651044  0.27918929     0.16900
C1003       C  0.71571297  0.20664910  0.30422075     0.03100
C1004       C  0.71603296  0.20364338  0.35022026    -0.12000
C1005       C  0.73957348  0.19179795  0.37219180    -0.03100
C1006       C  0.76306403  0.18230663  0.34728080     0.02400
C1007       C  0.73779922  0.19604015  0.23022568     0.09200
N1008       N  0.69207790  0.22077766  0.28350321     0.65600
H1009       H  0.69818544  0.21172022  0.36907323     0.18500
N1010       N  0.78705787  0.16920229  0.36817080     0.76100
H1011       H  0.78009529  0.17596572  0.28231965     0.10000
C1012       C  0.76030006  0.20655631  0.20376815     0.03700
C1013       C  0.75883631  0.20422726  0.15781081    -0.05000
C1014       C  0.73505109  0.19210764  0.13738601    -0.23400
C1015       C  0.71273593  0.18132610  0.16390806     0.12900
C1016       C  0.71432446  0.18334832  0.20983198    -0.12600
N1017       N  0.78432160  0.22039758  0.22290997     0.64600
H1018       H  0.77606167  0.21280699  0.13788832     0.12500
N1019       N  0.68923228  0.16665124  0.14497994     0.61300
H1020       H  0.69741672  0.17421532  0.22982787     0.08600
O1021       O  0.81089278  0.18149683  0.36745536    -0.40200
O1022       O  0.78520812  0.14404158  0.38289628    -0.39400
O1023       O  0.66696437  0.21524271  0.29570335    -0.39400
O1024       O  0.69632511  0.24045320  0.25552797    -0.37100
O1025       O  0.69317371  0.14261654  0.12792628    -0.38000
O1026       O  0.66418278  0.17545950  0.15133816    -0.34100
O1027       O  0.80923863  0.21310460  0.21214501    -0.35500
O1028       O  0.78069788  0.24159211  0.24746533    -0.39800
C1029       C  0.72073943  0.00007054  0.98535506    -0.13500
C1030       C  0.73905049  0.01324068  0.01526266     0.16900
C1031       C  0.75648005  0.99620854  0.04296035     0.03100
C1032       C  0.75570589  0.96647086  0.03902505    -0.12000
C1033       C  0.73695396  0.95341530  0.00958997    -0.03100
C1034       C  0.71943000  0.97048722  0.98254075     0.02400
C1035       C  0.73937152  0.04478958  0.01608893     0.09200
N1036       N  0.77409366  0.00859227  0.07618845     0.65600
H1037       H  0.76881846  0.95340422  0.06057825     0.18500
N1038       N  0.70133507  0.95812773  0.95031228     0.76100
H1039       H  0.70755388  0.01292595  0.96358997     0.10000
C1040       C  0.76420835  0.06089446  0.00748976     0.03700
C1041       C  0.76247288  0.09075391  0.00642433    -0.05000
C1042       C  0.73634479  0.10494459  0.01218018    -0.23400
C1043       C  0.71174425  0.08856469  0.02149243     0.12900
C1044       C  0.71360428  0.05893567  0.02371912    -0.12600
N1045       N  0.79097421  0.04742560  0.99802302     0.64600
H1046       H  0.78154264  0.10288756  0.99927952     0.12500
N1047       N  0.68452890  0.10145576  0.02837785     0.61300
H1048       H  0.69450366  0.04675204  0.03061813     0.08600
O1049       O  0.71111529  0.95313245  0.91237633    -0.40200
O1050       O  0.67482864  0.95719605  0.95691917    -0.39400
O1051       O  0.76426118  0.02775637  0.10078551    -0.39400
O1052       O  0.79835677  0.99824215  0.08432134    -0.37100
O1053       O  0.66909539  0.10736371  0.99552068    -0.38000
O1054       O  0.67350048  0.10075115  0.06638458    -0.34100
O1055       O  0.79226434  0.02717813  0.97112977    -0.35500
O1056       O  0.81376483  0.05765241  0.01291435    -0.39800
C1057       C  0.21889987  0.74252829  0.70052647    -0.13500
C1058       C  0.21316598  0.71702453  0.72335083     0.16900
C1059       C  0.20781930  0.69207718  0.69911065     0.03100
C1060       C  0.20953867  0.69310228  0.65291127    -0.12000
C1061       C  0.21525364  0.71864827  0.62995731    -0.03100
C1062       C  0.21993052  0.74361965  0.65439083     0.02400
C1063       C  0.21312484  0.71710826  0.77239344     0.09200
N1064       N  0.19972891  0.66585748  0.72058102     0.65600
H1065       H  0.20525682  0.67389201  0.63475676     0.18500
N1066       N  0.22607745  0.77023421  0.63311575     0.76100
H1067       H  0.22306917  0.76174801  0.71876564     0.10000
C1068       C  0.22962115  0.69764684  0.79766128     0.03700
C1069       C  0.22665100  0.69712257  0.84374438    -0.05000
C1070       C  0.20895816  0.71662678  0.86529077    -0.23400
C1071       C  0.19348838  0.73673735  0.84024321     0.12900
C1072       C  0.19557603  0.73672411  0.79417707    -0.12600
N1073       N  0.25006541  0.67907825  0.77735920     0.64600
H1074       H  0.23925980  0.68224822  0.86311659     0.12500
N1075       N  0.17459406  0.75640902  0.86101075     0.61300
H1076       H  0.18280581  0.75166246  0.77518631     0.08600
O1077       O  0.25047762  0.77461967  0.61692817    -0.40200
O1078       O  0.20871901  0.79063899  0.63627200    -0.39400
O1079       O  0.18170003  0.66587109  0.75155927    -0.39400
O1080       O  0.20827010  0.64238389  0.70559967    -0.37100
O1081       O  0.17818250  0.78282168  0.85567221    -0.38000
O1082       O  0.15274279  0.74742397  0.88104498    -0.34100
O1083       O  0.26565332  0.68809309  0.74620922    -0.35500
O1084       O  0.25478121  0.65466178  0.79360964    -0.39800
C1085       C  0.22354125  0.73452675  0.19995334    -0.13500
C1086       C  0.20873058  0.71310960  0.22292445     0.16900
C1087       C  0.19469154  0.69160728  0.19913505     0.03100
C1088       C  0.19671018  0.69160031  0.15295119    -0.12000
C1089       C  0.21113860  0.71335540  0.13006983    -0.03100
C1090       C  0.22485809  0.73482860  0.15394299     0.02400
C1091       C  0.20913372  0.71345486  0.27172587     0.09200
N1092       N  0.17750625  0.67045501  0.22106377     0.65600
H1093       H  0.18582289  0.67525642  0.13469899     0.18500
N1094       N  0.24131585  0.75632355  0.13200597     0.76100
H1095       H  0.23469695  0.75081879  0.21798622     0.10000
C1096       C  0.21956002  0.69023048  0.29698560     0.03700
C1097       C  0.21904409  0.69167977  0.34310215    -0.01800
C1098       C  0.20935748  0.71618650  0.36458647    -0.23400
C1099       C  0.19896595  0.73929829  0.33921679     0.12900
C1100       C  0.19905880  0.73776386  0.29319043    -0.12600
N1101       N  0.23177597  0.66564977  0.27648856     0.64600
H1102       H  0.22744495  0.67396175  0.36225652     0.12500
N1103       N  0.18723488  0.76398155  0.35962623     0.61300
H1104       H  0.19073532  0.75551029  0.27399534     0.08600
O1105       O  0.26510147  0.75002409  0.11525923    -0.40200
O1106       O  0.23381475  0.78206080  0.13410594    -0.39400
O1107       O  0.16062676  0.67749040  0.25155395    -0.39400
O1108       O  0.17674243  0.64537329  0.20672327    -0.37100
O1109       O  0.19820280  0.78806932  0.35236417    -0.38000
O1110       O  0.16391134  0.76224348  0.38025469    -0.34100
O1111       O  0.24977764  0.66856352  0.24575725    -0.35500
O1112       O  0.22708662  0.64113256  0.29233226    -0.39800
C1113       C  0.02389547  0.69531343  0.52144861    -0.13500
C1114       C  0.03674711  0.72100065  0.50852935     0.16900
C1115       C  0.01948622  0.74483676  0.49828643     0.03100
C1116       C  0.98986219  0.74255278  0.50261946    -0.12000
C1117       C  0.97692717  0.71672528  0.51511683    -0.03100
C1118       C  0.99433717  0.69290562  0.52456572     0.02400
C1119       C  0.06821381  0.72206504  0.50602689     0.09200
N1120       N  0.03149131  0.77105820  0.48204277     0.65600
H1121       H  0.97679597  0.76087004  0.49439812     0.18500
N1122       N  0.98247143  0.66618283  0.53789948     0.76100
H1123       H  0.03698737  0.67695218  0.52944127     0.10000
C1124       C  0.08438864  0.74203657  0.52984477     0.03700
C1125       C  0.11412178  0.74218617  0.52517754    -0.05000
C1126       C  0.12798752  0.72203414  0.49895735    -0.23400
C1127       C  0.11179494  0.70232731  0.47519227     0.12900
C1128       C  0.08218864  0.70250706  0.47886315    -0.12600
N1129       N  0.07119456  0.76134547  0.56012374     0.64600
H1130       H  0.12659124  0.75709652  0.54398318     0.12500
N1131       N  0.12511049  0.68268489  0.44594673     0.61300
H1132       H  0.06995266  0.68744195  0.45997040     0.08600
O1133       O  0.97782169  0.66108846  0.57825201    -0.40200
O1134       O  0.98077615  0.64630515  0.51046097    -0.39400
O1135       O  0.05080667  0.77079593  0.45299412    -0.39400
O1136       O  0.02071711  0.79455372  0.49309954    -0.37100
O1137       O  0.12509948  0.65643603  0.45515150    -0.38000
O1138       O  0.13405394  0.69118214  0.40875778    -0.34100
O1139       O  0.05215200  0.75265999  0.58647563    -0.35500
O1140       O  0.08061782  0.78632067  0.56385364    -0.39800
C1141       C  0.87891818  0.73720501  0.81412599    -0.13500
C1142       C  0.89109391  0.71411435  0.79200442     0.16900
C1143       C  0.90275051  0.69122212  0.81683277     0.03100
C1144       C  0.90027393  0.69123655  0.86295099    -0.12000
C1145       C  0.88778298  0.71419711  0.88504164    -0.03100
C1146       C  0.87727831  0.73752539  0.86018172     0.02400
C1147       C  0.89037188  0.71407733  0.74305820     0.09200
N1148       N  0.91772762  0.66829038  0.79597386     0.65600
H1149       H  0.90920091  0.67365419  0.88181849     0.18500
N1150       N  0.86391813  0.76122282  0.88100669     0.76100
H1151       H  0.86989471  0.75481706  0.79541104     0.10000
C1152       C  0.87867700  0.69117462  0.71931781     0.03700
C1153       C  0.88016545  0.69158724  0.67312394    -0.05000
C1154       C  0.89156489  0.71496912  0.64993024    -0.23400
C1155       C  0.90220541  0.73819704  0.67367925     0.12900
C1156       C  0.90178811  0.73743985  0.71980674    -0.12600
N1157       N  0.86447171  0.66790742  0.74131822     0.64600
H1158       H  0.87126432  0.67397809  0.65508754     0.12500
N1159       N  0.91433242  0.76230237  0.65151653     0.61300
H1160       H  0.91075241  0.75510826  0.73764454     0.08600
O1161       O  0.83931041  0.75856920  0.89732897    -0.40200
O1162       O  0.87504038  0.78557738  0.87799976    -0.39400
O1163       O  0.93484906  0.67331941  0.76465870    -0.39400
O1164       O  0.91609202  0.64333187  0.81164800    -0.37100
O1165       O  0.89970980  0.78461239  0.64609133    -0.38000
O1166       O  0.94051547  0.76250278  0.64216268    -0.34100
O1167       O  0.84763755  0.67252742  0.77299501    -0.35500
O1168       O  0.86624814  0.64308986  0.72609043    -0.39800
C1169       C  0.87878679  0.68613301  0.22076322    -0.13500
C1170       C  0.89004376  0.70934174  0.24327391     0.16900
C1171       C  0.90014429  0.73314219  0.21916096     0.03100
C1172       C  0.89777379  0.73376964  0.17311505    -0.12000
C1173       C  0.88641375  0.71058654  0.15043906    -0.03100
C1174       C  0.87682346  0.68658112  0.17470435     0.02400
C1175       C  0.88927285  0.70927218  0.29206152     0.09200
N1176       N  0.91364879  0.75633528  0.24095514     0.65600
H1177       H  0.90584124  0.75203764  0.15488491     0.18500
N1178       N  0.86376354  0.66310527  0.15324119     0.76100
H1179       H  0.87066994  0.66795575  0.23916686     0.10000
C1180       C  0.87281695  0.72937263  0.31533090     0.03700
C1181       C  0.87469057  0.73024174  0.36144208    -0.05000
C1182       C  0.89161913  0.71069501  0.38489601    -0.23400
C1183       C  0.90741217  0.69014020  0.36160297     0.12900
C1184       C  0.90602217  0.68955877  0.31545918    -0.12600
N1185       N  0.85340867  0.74821918  0.29281590     0.64600
H1186       H  0.86193065  0.74553729  0.37928504     0.12500
N1187       N  0.92604926  0.67073986  0.38413131     0.61300
H1188       H  0.91878287  0.67423763  0.29766093     0.08600
O1189       O  0.83818404  0.66491015  0.14097251    -0.40200
O1190       O  0.87670268  0.63962380  0.15086468    -0.39400
O1191       O  0.93502378  0.75174990  0.26514540    -0.39400
O1192       O  0.90634267  0.78162326  0.23215763    -0.37100
O1193       O  0.92329053  0.64428769  0.37909642    -0.38000
O1194       O  0.94720411  0.68007038  0.40496224    -0.34100
O1195       O  0.83791773  0.73906618  0.26218104    -0.35500
O1196       O  0.84923817  0.77304899  0.30687482    -0.39800
C1197       C  0.01773866  0.73938516  0.02116826    -0.13500
C1198       C  0.03203172  0.71561656  0.00432864     0.16900
C1199       C  0.01635835  0.69122742  0.99321680     0.03100
C1200       C  0.98682843  0.69097611  0.99944071    -0.12000
C1201       C  0.97234113  0.71484129  0.01582218    -0.03100
C1202       C  0.98816408  0.73918236  0.02730218     0.02400
C1203       C  0.06353558  0.71574838  0.00201565     0.09200
N1204       N  0.03004626  0.66692020  0.97435745     0.65600
H1205       H  0.97504336  0.67227985  0.98985319     0.18500
N1206       N  0.97479555  0.76331807  0.04700744     0.76100
H1207       H  0.02977562  0.75788042  0.03097402     0.10000
C1208       C  0.07851579  0.73681509  0.97788011     0.03700
C1209       C  0.10834834  0.73713208  0.97907885    -0.05000
C1210       C  0.12353088  0.71632509  0.00291082    -0.23400
C1211       C  0.10848667  0.69552450  0.02742695     0.12900
C1212       C  0.07873763  0.69535026  0.02662297    -0.12600
N1213       N  0.06379135  0.75727813  0.95082714     0.64600
H1214       H  0.11975108  0.75305318  0.95990091     0.12500
N1215       N  0.12306552  0.67561265  0.05545715     0.61300
H1216       H  0.06736754  0.67968314  0.04637969     0.08600
O1217       O  0.97793125  0.78775048  0.02997478    -0.40200
O1218       O  0.96302816  0.76079443  0.08435448    -0.39400
O1219       O  0.02436628  0.64223836  0.98864112    -0.39400
O1220       O  0.04624979  0.66989292  0.94131559    -0.37100
O1221       O  0.13653051  0.68438299  0.08853961    -0.38000
O1222       O  0.11954358  0.64924695  0.05052158    -0.34100
O1223       O  0.07113912  0.78308015  0.95096909    -0.35500
O1224       O  0.04516835  0.74922697  0.92382996    -0.39800
C1225       C  0.39124736  0.20360684  0.68995731    -0.13500
C1226       C  0.36819540  0.19207298  0.71356937     0.16900
C1227       C  0.34414307  0.18251666  0.69036951     0.03100
C1228       C  0.34347800  0.18481795  0.64428555    -0.12000
C1229       C  0.36671037  0.19597958  0.62061216    -0.03100
C1230       C  0.39069733  0.20571325  0.64390711     0.02400
C1231       C  0.36863464  0.19258985  0.76246183     0.09200
N1232       N  0.32064201  0.16964826  0.71311163     0.65600
H1233       H  0.32507140  0.17694322  0.62685754     0.18500
N1234       N  0.41398396  0.21918326  0.62150307     0.76100
H1235       H  0.40940957  0.21192671  0.70749920     0.10000
C1236       C  0.39160307  0.18105667  0.78674995     0.03700
C1237       C  0.39237653  0.18425061  0.83263679    -0.05000
C1238       C  0.37010068  0.19787480  0.85503483    -0.23400
C1239       C  0.34725416  0.20950894  0.83064513     0.12900
C1240       C  0.34679691  0.20691635  0.78478467    -0.12600
N1241       N  0.41359205  0.16504656  0.76549634     0.64600
H1242       H  0.40979616  0.17481245  0.85106607     0.12500
N1243       N  0.32489058  0.22493152  0.85180744     0.61300
H1244       H  0.32955987  0.21671152  0.76637535     0.08600
O1245       O  0.43849871  0.20821827  0.62314919    -0.40200
O1246       O  0.41073493  0.24359339  0.60440622    -0.39400
O1247       O  0.29589229  0.17970148  0.70848651    -0.39400
O1248       O  0.32420879  0.14682083  0.73477652    -0.37100
O1249       O  0.32923668  0.24994852  0.86475093    -0.38000
O1250       O  0.30009778  0.21472712  0.85348145    -0.34100
O1251       O  0.43940405  0.17036280  0.77313927    -0.35500
O1252       O  0.40725695  0.14391422  0.74224430    -0.39800
C1253       C  0.34111775  0.20346146  0.28417778    -0.13500
C1254       C  0.36483333  0.19197308  0.26230242     0.16900
C1255       C  0.38842207  0.18258307  0.28732635     0.03100
C1256       C  0.38802966  0.18529208  0.33325139    -0.12000
C1257       C  0.36417125  0.19632119  0.35523271    -0.03100
C1258       C  0.34049525  0.20553652  0.33023245     0.02400
C1259       C  0.36546566  0.19172103  0.21328015     0.09200
N1260       N  0.41253524  0.16943622  0.26673528     0.65600
H1261       H  0.40614942  0.17765339  0.35201414     0.18500
N1262       N  0.31616142  0.21806648  0.35085664     0.76100
H1263       H  0.32320808  0.21147939  0.26529928     0.10000
C1264       C  0.34302224  0.18004530  0.18853494     0.03700
C1265       C  0.34399566  0.18153704  0.14233722    -0.05000
C1266       C  0.36729430  0.19376989  0.12013635    -0.23400
C1267       C  0.38952419  0.20579929  0.14486167     0.12900
C1268       C  0.38837254  0.20467173  0.19099626    -0.12600
N1269       N  0.31962032  0.16582051  0.20971046     0.64600
H1270       H  0.32689138  0.17213140  0.12363932     0.12500
N1271       N  0.41260368  0.22053995  0.12375839     0.61300
H1272       H  0.40516888  0.21465565  0.20963178     0.08600
O1273       O  0.29235200  0.20578103  0.34925315    -0.40200
O1274       O  0.31773118  0.24285509  0.36614427    -0.39400
O1275       O  0.43742640  0.17655791  0.27742924    -0.39400
O1276       O  0.40905591  0.14911155  0.24049607    -0.37100
O1277       O  0.40767614  0.24218143  0.09987554    -0.38000
O1278       O  0.43796519  0.21422086  0.13340489    -0.34100
O1279       O  0.29443895  0.17106539  0.19769736    -0.35500
O1280       O  0.32415632  0.14633107  0.23786652    -0.39800
C1281       C  0.34528339  0.00511542  0.45367430    -0.13500
C1282       C  0.36594492  0.01859257  0.47940269     0.16900
C1283       C  0.38642496  0.00173472  0.50192789     0.03100
C1284       C  0.38652506  0.97215165  0.49620994    -0.12000
C1285       C  0.36579868  0.95873639  0.47058139    -0.03100
C1286       C  0.34487878  0.97549277  0.44948993     0.02400
C1287       C  0.36595050  0.05023461  0.48111071     0.09200
N1288       N  0.40665083  0.01406788  0.53155060     0.65600
H1289       H  0.40224767  0.95935882  0.51347546     0.18500
N1290       N  0.32397984  0.96292269  0.42184658     0.76100
H1291       H  0.32958680  0.01775297  0.43605692     0.10000
C1292       C  0.39044042  0.06652829  0.47081961     0.03700
C1293       C  0.38940322  0.09621480  0.47478609    -0.05000
C1294       C  0.36418091  0.11037257  0.48671548    -0.23400
C1295       C  0.33962170  0.09402531  0.49584482     0.12900
C1296       C  0.34080911  0.06431680  0.49338787    -0.12600
N1297       N  0.41617932  0.05350480  0.45502258     0.64600
H1298       H  0.40829293  0.10840470  0.46672926     0.12500
N1299       N  0.31331594  0.10713498  0.50792557     0.61300
H1300       H  0.32189383  0.05210201  0.50129185     0.08600
O1301       O  0.32889245  0.96074399  0.38109088    -0.40200
O1302       O  0.29902763  0.95921885  0.43627371    -0.39400
O1303       O  0.39907416  0.03344627  0.55757327    -0.39400
O1304       O  0.43132805  0.00361107  0.53505415    -0.37100
O1305       O  0.29484829  0.11225508  0.47875310    -0.38000
O1306       O  0.30679588  0.10941507  0.54814171    -0.34100
O1307       O  0.41516836  0.03441759  0.42616012    -0.35500
O1308       O  0.44008511  0.06310532  0.46640523    -0.39800
C1309       C  0.39018548  0.87682963  0.67226689    -0.13500
C1310       C  0.36715226  0.86350636  0.69369227     0.16900
C1311       C  0.34411272  0.85371778  0.66828440     0.03100
C1312       C  0.34428886  0.85805812  0.62245620    -0.12000
C1313       C  0.36745623  0.87115493  0.60106617    -0.03100
C1314       C  0.39061208  0.88061669  0.62641115     0.02400
C1315       C  0.36638910  0.86281317  0.74272909     0.09200
N1316       N  0.32090747  0.83853453  0.68832671     0.65600
H1317       H  0.32668440  0.85008153  0.60325671     0.18500
N1318       N  0.41408385  0.89528113  0.60638546     0.76100
H1319       H  0.40754865  0.88531574  0.69144371     0.10000
C1320       C  0.38997498  0.85333587  0.76762061     0.03700
C1321       C  0.39015371  0.85689733  0.81341943    -0.05000
C1322       C  0.36674347  0.86885569  0.83544263    -0.23400
C1323       C  0.34278083  0.87757432  0.81061391     0.12900
C1324       C  0.34292041  0.87464699  0.76471242    -0.12600
N1325       N  0.41350794  0.83932199  0.74695401     0.64600
H1326       H  0.40837288  0.84935252  0.83203858     0.12500
N1327       N  0.31864343  0.89056403  0.83113794     0.61300
H1328       H  0.32496784  0.88268814  0.74595897     0.08600
O1329       O  0.43907527  0.88593890  0.61141886    -0.40200
O1330       O  0.41019252  0.91910664  0.58767146    -0.39400
O1331       O  0.29558191  0.84475293  0.67828116    -0.39400
O1332       O  0.32572913  0.81715997  0.71282636    -0.37100
O1333       O  0.32085689  0.91499622  0.84754067    -0.38000
O1334       O  0.29443989  0.87918757  0.82822921    -0.34100
O1335       O  0.43859551  0.84764295  0.75382553    -0.35500
O1336       O  0.40943165  0.81709840  0.72494504    -0.39800
C1337       C  0.34424032  0.87307626  0.26425949    -0.13500
C1338       C  0.36985736  0.86647563  0.24267225     0.16900
C1339       C  0.39476509  0.86250923  0.26797374     0.03100
C1340       C  0.39360068  0.86560649  0.31384643    -0.12000
C1341       C  0.36786851  0.87171389  0.33556908    -0.03100
C1342       C  0.34292641  0.87545012  0.31018404     0.02400
C1343       C  0.37050503  0.86611890  0.19361740     0.09200
N1344       N  0.42119516  0.85453947  0.24778104     0.65600
H1345       H  0.41285711  0.86217280  0.33274788     0.18500
N1346       N  0.31625030  0.88251318  0.33016804     0.76100
H1347       H  0.32515365  0.87711669  0.24521065     0.10000
C1348       C  0.34986502  0.85125565  0.16916937     0.03700
C1349       C  0.34937484  0.85411323  0.12311581    -0.05000
C1350       C  0.36974865  0.87059265  0.10063548    -0.23400
C1351       C  0.39064906  0.88497528  0.12491486     0.12900
C1352       C  0.39065981  0.88289064  0.17098067    -0.12600
N1353       N  0.32982571  0.83259793  0.19045055     0.64600
H1354       H  0.33361439  0.84247600  0.10463331     0.12500
N1355       N  0.41089785  0.90315102  0.10346145     0.61300
H1356       H  0.40599149  0.89520563  0.18923616     0.08600
O1357       O  0.29529390  0.86602398  0.32621902    -0.40200
O1358       O  0.31240571  0.90705845  0.34545459    -0.39400
O1359       O  0.44382725  0.86740023  0.25747273    -0.39400
O1360       O  0.42235249  0.83326886  0.22283765    -0.37100
O1361       O  0.43713735  0.89766433  0.10615337    -0.38000
O1362       O  0.40283131  0.92650509  0.08671641    -0.34100
O1363       O  0.30396525  0.83315316  0.17935181    -0.35500
O1364       O  0.33832492  0.81386606  0.21758545    -0.39800
C1365       C  0.39109276  0.00310771  0.98016027    -0.13500
C1366       C  0.36584092  0.01781322  0.97052911     0.16900
C1367       C  0.34151347  0.00214354  0.95822228     0.03100
C1368       C  0.34274424  0.97222574  0.95799786    -0.12000
C1369       C  0.36810418  0.95743005  0.96750611    -0.03100
C1370       C  0.39268536  0.97337821  0.97807981     0.02400
C1371       C  0.36561447  0.04944542  0.97427291     0.09200
N1372       N  0.31574451  0.01620757  0.94474202     0.65600
H1373       H  0.32389600  0.96046656  0.94894775     0.18500
N1374       N  0.41944050  0.95996672  0.98734014     0.76100
H1375       H  0.40990646  0.01490460  0.98934246     0.10000
C1376       C  0.34594035  0.06399314  0.00150167     0.03700
C1377       C  0.34638600  0.09391841  0.00265226    -0.05000
C1378       C  0.36695713  0.10962349  0.97918810    -0.23400
C1379       C  0.38679684  0.09500916  0.95272533     0.12900
C1380       C  0.38584173  0.06529346  0.95025897    -0.12600
N1381       N  0.32630388  0.04880172  0.02952912     0.64600
H1382       H  0.33140312  0.10495596  0.02366813     0.12500
N1383       N  0.40733609  0.11013284  0.92670910     0.61300
H1384       H  0.40092320  0.05448697  0.92910116     0.08600
O1385       O  0.43372287  0.94959675  0.95605451    -0.40200
O1386       O  0.43166337  0.96468204  0.02351267    -0.39400
O1387       O  0.31669978  0.03718042  0.91835012    -0.39400
O1388       O  0.29187175  0.00594027  0.95548903    -0.37100
O1389       O  0.43278490  0.11152989  0.93959920    -0.38000
O1390       O  0.40107802  0.11829354  0.88812411    -0.34100
O1391       O  0.33447297  0.02725696  0.05136375    -0.35500
O1392       O  0.30172547  0.05872549  0.03644830    -0.39800
loop_ 
_geom_bond_atom_site_label_1 
_geom_bond_atom_site_label_2 
_geom_bond_distance 
_geom_bond_site_symmetry_2 
_ccdc_geom_bond_type 
O1            V9   1.897       .  S
O1           C11   1.263       .  A
O2            V9   1.896       .  S
O2           C12   1.263       .  A
O3            V9   1.900       .  S
O3           C13   1.265       .  A
O4            V9   1.898   1_554  S
O4           C14   1.264       .  A
O5           V10   1.896   1_554  S
O5           C14   1.263       .  A
O6           V10   1.895       .  S
O6           C13   1.263       .  A
O7           V10   1.910       .  S
O7           C12   1.268       .  A
O8           V10   1.911       .  S
O8           C11   1.268       .  A
V9           V10   2.082       .  T
C11        C1369   1.493       .  S
C12         C258   1.510       .  S
C13        C1322   1.481       .  S
C14        C1350   1.475       .  S
O15          V23   1.894       .  S
O15          C25   1.263       .  A
O16          V23   1.894       .  S
O16          C26   1.263       .  A
O17          V23   1.897       .  S
O17          C27   1.265       .  A
O18          V23   1.898       .  S
O18          C28   1.265       .  A
O19          V24   1.895       .  S
O19          C28   1.264       .  A
O20          V24   1.898       .  S
O20          C27   1.264       .  A
O21          V24   1.906       .  S
O21          C26   1.267       .  A
O22          V24   1.907       .  S
O22          C25   1.266       .  A
V23          V24   2.083       .  T
C25        C1285   1.480       .  S
C26         C292   1.496       .  S
C27        C1341   1.483       .  S
C28        C1313   1.478       .  S
O29          V37   1.906       .  S
O29          C39   1.266       .  A
O30          V37   1.902       .  S
O30          C40   1.266       .  A
O31          V37   1.891       .  S
O31          C41   1.263       .  A
O32          V37   1.895   1_554  S
O32          C42   1.263       .  A
O33          V38   1.900   1_554  S
O33          C42   1.265       .  A
O34          V38   1.901       .  S
O34          C41   1.265       .  A
O35          V38   1.901       .  S
O35          C40   1.264       .  A
O36          V38   1.903       .  S
O36          C39   1.265       .  A
V37          V38   2.084       .  T
C39        C1378   1.484       .  S
C40         C189   1.500       .  S
C41        C1238   1.476       .  S
C42        C1266   1.477       .  S
O43          V51   1.904       .  S
O43          C53   1.266       .  A
O44          V51   1.902       .  S
O44          C54   1.266       .  A
O45          V51   1.899       .  S
O45          C55   1.264       .  A
O46          V51   1.901       .  S
O46          C56   1.265       .  A
O47          V52   1.892       .  S
O47          C56   1.263       .  A
O48          V52   1.896       .  S
O48          C55   1.264       .  A
O49          V52   1.893       .  S
O49          C54   1.263       .  A
O50          V52   1.895       .  S
O50          C53   1.264       .  A
V51          V52   2.084       .  T
C53        C1294   1.487       .  S
C54         C224   1.493       .  S
C55        C1257   1.480       .  S
C56        C1229   1.478       .  S
O57          V65   1.895       .  S
O57          C67   1.264       .  A
O58          V65   1.893       .  S
O58          C68   1.263       .  A
O59          V65   1.898   1_556  S
O59          C69   1.265       .  A
O60          V65   1.894       .  S
O60          C70   1.263       .  A
O61          V66   1.900       .  S
O61          C70   1.265       .  A
O62          V66   1.896   1_556  S
O62          C69   1.264       .  A
O63          V66   1.900       .  S
O63          C68   1.265       .  A
O64          V66   1.901       .  S
O64          C67   1.265       .  A
V65          V66   2.085       .  T
C67        C1201   1.483       .  S
C68         C394   1.493       .  S
C69        C1145   1.479       .  S
C70        C1173   1.478       .  S
O71          V79   1.898       .  S
O71          C81   1.264       .  A
O72          V79   1.900       .  S
O72          C82   1.265       .  A
O73          V79   1.899       .  S
O73          C83   1.264       .  A
O74          V79   1.891       .  S
O74          C84   1.263       .  A
O75          V80   1.900       .  S
O75          C84   1.265       .  A
O76          V80   1.898       .  S
O76          C83   1.264       .  A
O77          V80   1.897       .  S
O77          C82   1.264       .  A
O78          V80   1.894       .  S
O78          C81   1.264       .  A
V79          V80   2.085       .  T
C81        C1117   1.482       .  S
C82         C427   1.500       .  S
C83        C1182   1.476       .  S
C84        C1154   1.477       .  S
O85          V93   1.898       .  S
O85          C95   1.264   1_556  A
O86          V93   1.899       .  S
O86          C96   1.264       .  A
O87          V93   1.902       .  S
O87          C97   1.265       .  A
O88          V93   1.896   1_554  S
O88          C98   1.264       .  A
O89          V94   1.896   1_554  S
O89          C98   1.263       .  A
O90          V94   1.894       .  S
O90          C97   1.262       .  A
O91          V94   1.894       .  S
O91          C96   1.264       .  A
O92          V94   1.897   1_554  S
O92          C95   1.265       .  A
V93          V94   2.086       .  T
C95        C1210   1.476       .  S
C96         C257   1.494       .  S
C97        C1070   1.473       .  S
C98        C1089   1.473       .  S
O99         V107   1.898       .  S
O99         C109   1.263       .  A
O100        V107   1.899       .  S
O100        C110   1.265       .  A
O101        V107   1.902       .  S
O101        C111   1.266       .  A
O102        V107   1.899       .  S
O102        C112   1.264       .  A
O103        V108   1.897       .  S
O103        C112   1.265       .  A
O104        V108   1.888       .  S
O104        C111   1.262       .  A
O105        V108   1.897       .  S
O105        C110   1.263       .  A
O106        V108   1.895       .  S
O106        C109   1.264       .  A
V107        V108   2.085       .  T
C109       C1126   1.471       .  S
C110        C291   1.496       .  S
C111       C1098   1.476       .  S
C112       C1061   1.486       .  S
O113        V121   1.892       .  S
O113        C123   1.262       .  A
O114        V121   1.894       .  S
O114        C124   1.262       .  A
O115        V121   1.902   1_556  S
O115        C125   1.265       .  A
O116        V121   1.904       .  S
O116        C126   1.266       .  A
O117        V122   1.891       .  S
O117        C126   1.262       .  A
O118        V122   1.896   1_556  S
O118        C125   1.263       .  A
O119        V122   1.904       .  S
O119        C124   1.267       .  A
O120        V122   1.906       .  S
O120        C123   1.267       .  A
V121        V122   2.084       .  T
C123       C1042   1.488       .  S
C124        C325   1.496       .  S
C125        C977   1.480       .  S
C126       C1014   1.479       .  S
O127        V135   1.896       .  S
O127        C137   1.264       .  A
O128        V135   1.896       .  S
O128        C138   1.263       .  A
O129        V135   1.893       .  S
O129        C139   1.263       .  A
O130        V135   1.895       .  S
O130        C140   1.263       .  A
O131        V136   1.899       .  S
O131        C140   1.265       .  A
O132        V136   1.903       .  S
O132        C139   1.265       .  A
O133        V136   1.901       .  S
O133        C138   1.266       .  A
O134        V136   1.904       .  S
O134        C137   1.265       .  A
V135        V136   2.085       .  T
C137        C949   1.481       .  S
C138        C360   1.494       .  S
C139       C1005   1.478       .  S
C140        C986   1.478       .  S
O141        V149   1.898       .  S
O141        C151   1.263       .  A
O142        V149   1.898       .  S
O142        C152   1.265       .  A
O143        V149   1.898   1_556  S
O143        C153   1.265       .  A
O144        V149   1.897       .  S
O144        C154   1.265       .  A
O145        V150   1.902       .  S
O145        C154   1.264       .  A
O146        V150   1.902   1_556  S
O146        C153   1.265       .  A
O147        V150   1.902       .  S
O147        C152   1.265       .  A
O148        V150   1.901       .  S
O148        C151   1.265       .  A
V149        V150   2.083       .  T
C151       C1033   1.475       .  S
C152        C393   1.497       .  S
C153        C902   1.486       .  S
C154        C921   1.482       .  S
O155        V163   1.901       .  S
O155        C165   1.264       .  A
O156        V163   1.900       .  S
O156        C166   1.265       .  A
O157        V163   1.901       .  S
O157        C167   1.266       .  A
O158        V163   1.904       .  S
O158        C168   1.265       .  A
O159        V164   1.894       .  S
O159        C168   1.263       .  A
O160        V164   1.898       .  S
O160        C167   1.264       .  A
O161        V164   1.897       .  S
O161        C166   1.264       .  A
O162        V164   1.899       .  S
O162        C165   1.265       .  A
V163        V164   2.086       .  T
C165        C958   1.478       .  S
C166        C428   1.493       .  S
C167        C930   1.481       .  S
C168        C893   1.476       .  S
N169        C174   1.355   1_556  A
N169        C173   1.355   1_556  A
N169        H201   1.043       .  S
N170        C177   1.353       .  A
N170        C178   1.350       .  A
N171        C176   1.352       .  A
N171        C175   1.350       .  A
N171        H202   1.041   1_554  S
N172        C179   1.351   1_554  A
N172        C180   1.351   1_554  A
C173        C181   1.386       .  A
C173        C189   1.418   1_554  A
C174        C190   1.419       .  A
C174        C182   1.387       .  A
C175        C183   1.387       .  A
C175        C192   1.410       .  A
C176        C191   1.412       .  A
C176        C184   1.387       .  A
C177        C189   1.418       .  A
C177        C185   1.389       .  A
C178        C192   1.410   1_556  A
C178        C186   1.383       .  A
C179        C187   1.390       .  A
C179        C190   1.417   1_556  A
C180        C188   1.383       .  A
C180        C191   1.410   1_556  A
C181        C182   1.373       .  A
C181        H193   1.082       .  S
C182        H194   1.079       .  S
C183        C184   1.377       .  A
C183        H195   1.082       .  S
C184        H196   1.082       .  S
C185        C186   1.374       .  A
C185        H197   1.080       .  S
C186        H198   1.082       .  S
C187        C188   1.374       .  A
C187        H199   1.081       .  S
C188        H200   1.082       .  S
C190        C452   1.496       .  S
C191        C874   1.491       .  S
C192        C837   1.482       .  S
N203        C208   1.356       .  A
N203        C207   1.353       .  A
N203        H235   1.043       .  S
N204        C211   1.357       .  A
N204        C212   1.354       .  A
N205        C210   1.354       .  A
N205        C209   1.352       .  A
N205        H236   1.038       .  S
N206        C213   1.350       .  A
N206        C214   1.349       .  A
C207        C215   1.388       .  A
C207        C223   1.417       .  A
C208        C224   1.416       .  A
C208        C216   1.386       .  A
C209        C217   1.389       .  A
C209        C226   1.417       .  A
C210        C225   1.413       .  A
C210        C218   1.385       .  A
C211        C223   1.426       .  A
C211        C219   1.391       .  A
C212        C226   1.419       .  A
C212        C220   1.383       .  A
C213        C221   1.390       .  A
C213        C224   1.415       .  A
C214        C222   1.383       .  A
C214        C225   1.406       .  A
C215        C216   1.372       .  A
C215        H227   1.081       .  S
C216        H228   1.082       .  S
C217        C218   1.373       .  A
C217        H229   1.081       .  S
C218        H230   1.082       .  S
C219        C220   1.365       .  A
C219        H231   1.076       .  S
C220        H232   1.081       .  S
C221        C222   1.373       .  A
C221        H233   1.081       .  S
C222        H234   1.082       .  S
C223        C466   1.502       .  S
C225        C781   1.483       .  S
C226        C809   1.492       .  S
N237        C242   1.358       .  A
N237        C241   1.359       .  A
N237        H269   1.042   1_556  S
N238        C245   1.349       .  A
N238        C246   1.350       .  A
N239        C244   1.351       .  A
N239        C243   1.354       .  A
N239        H270   1.034   1_554  S
N240        C247   1.355       .  A
N240        C248   1.354       .  A
C241        C249   1.388       .  A
C241        C257   1.423       .  A
C242        C258   1.422       .  A
C242        C250   1.386       .  A
C243        C251   1.385       .  A
C243        C260   1.412       .  A
C244        C259   1.418   1_554  A
C244        C252   1.389       .  A
C245        C257   1.418   1_554  A
C245        C253   1.392       .  A
C246        C260   1.408       .  A
C246        C254   1.381       .  A
C247        C255   1.391       .  A
C247        C258   1.425       .  A
C248        C256   1.383       .  A
C248        C259   1.419       .  A
C249        C250   1.372       .  A
C249        H261   1.082       .  S
C250        H262   1.082       .  S
C251        C252   1.371       .  A
C251        H263   1.081       .  S
C252        H264   1.082       .  S
C253        C254   1.370       .  A
C253        H265   1.080       .  S
C254        H266   1.083       .  S
C255        C256   1.367       .  A
C255        H267   1.079       .  S
C256        H268   1.082       .  S
C259        C753   1.492   1_556  S
C260        C865   1.487       .  S
N271        C276   1.354       .  A
N271        C275   1.352       .  A
N271        H303   1.050       .  S
N272        C279   1.353       .  A
N272        C280   1.353       .  A
N273        C278   1.352       .  A
N273        C277   1.351       .  A
N273        H304   1.053       .  S
N274        C281   1.352       .  A
N274        C282   1.351       .  A
C275        C283   1.388       .  A
C275        C291   1.418       .  A
C276        C292   1.416       .  A
C276        C284   1.386       .  A
C277        C285   1.390       .  A
C277        C294   1.419       .  A
C278        C293   1.412       .  A
C278        C286   1.385       .  A
C279        C291   1.420       .  A
C279        C287   1.389       .  A
C280        C294   1.415       .  A
C280        C288   1.384       .  A
C281        C289   1.391       .  A
C281        C292   1.419       .  A
C282        C290   1.382       .  A
C282        C293   1.409       .  A
C283        C284   1.376       .  A
C283        H295   1.082       .  S
C284        H296   1.082       .  S
C285        C286   1.372       .  A
C285        H297   1.081       .  S
C286        H298   1.082       .  S
C287        C288   1.370       .  A
C287        H299   1.079       .  S
C288        H300   1.080       .  S
C289        C290   1.372       .  A
C289        H301   1.080       .  S
C290        H302   1.082       .  S
C293        C725   1.490       .  S
C294        C818   1.492       .  S
N305        C310   1.354   1_554  A
N305        C309   1.353   1_554  A
N305        H337   1.043       .  S
N306        C313   1.352       .  A
N306        C314   1.351       .  A
N307        C312   1.351   1_554  A
N307        C311   1.350   1_554  A
N307        H338   1.041       .  S
N308        C315   1.350   1_556  A
N308        C316   1.349   1_556  A
C309        C317   1.387       .  A
C309        C325   1.415   1_556  A
C310        C326   1.417       .  A
C310        C318   1.388       .  A
C311        C319   1.388       .  A
C311        C328   1.411   1_556  A
C312        C327   1.409       .  A
C312        C320   1.386       .  A
C313        C325   1.419       .  A
C313        C321   1.390       .  A
C314        C328   1.412       .  A
C314        C322   1.383       .  A
C315        C323   1.390       .  A
C315        C326   1.415   1_554  A
C316        C324   1.383       .  A
C316        C327   1.406   1_554  A
C317        C318   1.376       .  A
C317        H329   1.082       .  S
C318        H330   1.082       .  S
C319        C320   1.377       .  A
C319        H331   1.082       .  S
C320        H332   1.082       .  S
C321        C322   1.375       .  A
C321        H333   1.080       .  S
C322        H334   1.082       .  S
C323        C324   1.373       .  A
C323        H335   1.080       .  S
C324        H336   1.082       .  S
C326        C480   1.494       .  S
C327        C697   1.483       .  S
C328        C846   1.489       .  S
N339        C344   1.354       .  A
N339        C343   1.354       .  A
N339        H371   1.043       .  S
N340        C347   1.356       .  A
N340        C348   1.354       .  A
N341        C346   1.354       .  A
N341        C345   1.353       .  A
N341        H372   1.038       .  S
N342        C349   1.352       .  A
N342        C350   1.350       .  A
C343        C351   1.387       .  A
C343        C359   1.416       .  A
C344        C360   1.416       .  A
C344        C352   1.387       .  A
C345        C353   1.390       .  A
C345        C362   1.419       .  A
C346        C361   1.415       .  A
C346        C354   1.385       .  A
C347        C359   1.422       .  A
C347        C355   1.388       .  A
C348        C362   1.421       .  A
C348        C356   1.386       .  A
C349        C357   1.390       .  A
C349        C360   1.417       .  A
C350        C358   1.382       .  A
C350        C361   1.408       .  A
C351        C352   1.375       .  A
C351        H363   1.082       .  S
C352        H364   1.082       .  S
C353        C354   1.373       .  A
C353        H365   1.080       .  S
C354        H366   1.082       .  S
C355        C356   1.368       .  A
C355        H367   1.078       .  S
C356        H368   1.080       .  S
C357        C358   1.373       .  A
C357        H369   1.080       .  S
C358        H370   1.083       .  S
C359        C494   1.502       .  S
C361        C790   1.489       .  S
C362        C669   1.493       .  S
N373        C378   1.354       .  A
N373        C377   1.354       .  A
N373        H405   1.043   1_554  S
N374        C381   1.353   1_554  A
N374        C382   1.350   1_554  A
N375        C380   1.353   1_556  A
N375        C379   1.351   1_556  A
N375        H406   1.040       .  S
N376        C383   1.351   1_554  A
N376        C384   1.351   1_554  A
C377        C385   1.387       .  A
C377        C393   1.417       .  A
C378        C394   1.416       .  A
C378        C386   1.387       .  A
C379        C387   1.388       .  A
C379        C396   1.414       .  A
C380        C395   1.413   1_554  A
C380        C388   1.386       .  A
C381        C393   1.417   1_556  A
C381        C389   1.389       .  A
C382        C396   1.410   1_556  A
C382        C390   1.384       .  A
C383        C391   1.390       .  A
C383        C394   1.417   1_556  A
C384        C392   1.382       .  A
C384        C395   1.408       .  A
C385        C386   1.376       .  A
C385        H397   1.082       .  S
C386        H398   1.082       .  S
C387        C388   1.377       .  A
C387        H399   1.082       .  S
C388        H400   1.082       .  S
C389        C390   1.372       .  A
C389        H401   1.080       .  S
C390        H402   1.082       .  S
C391        C392   1.373       .  A
C391        H403   1.081       .  S
C392        H404   1.082       .  S
C395        C706   1.488       .  S
C396        C762   1.483       .  S
N407        C412   1.355       .  A
N407        C411   1.354       .  A
N407        H439   1.044       .  S
N408        C415   1.354       .  A
N408        C416   1.352       .  A
N409        C414   1.353       .  A
N409        C413   1.352       .  A
N409        H440   1.041       .  S
N410        C417   1.350       .  A
N410        C418   1.350       .  A
C411        C419   1.388       .  A
C411        C427   1.418       .  A
C412        C428   1.417       .  A
C412        C420   1.387       .  A
C413        C421   1.389       .  A
C413        C430   1.416       .  A
C414        C429   1.414       .  A
C414        C422   1.386       .  A
C415        C427   1.419       .  A
C415        C423   1.389       .  A
C416        C430   1.416       .  A
C416        C424   1.385       .  A
C417        C425   1.389       .  A
C417        C428   1.415       .  A
C418        C426   1.383       .  A
C418        C429   1.409       .  A
C419        C420   1.375       .  A
C419        H431   1.082       .  S
C420        H432   1.082       .  S
C421        C422   1.374       .  A
C421        H433   1.081       .  S
C422        H434   1.082       .  S
C423        C424   1.368       .  A
C423        H435   1.079       .  S
C424        H436   1.081       .  S
C425        C426   1.373       .  A
C425        H437   1.081       .  S
C426        H438   1.082       .  S
C429        C734   1.487       .  S
C430        C678   1.488       .  S
O441        V449   1.898       .  S
O441        C451   1.265       .  A
O442        V449   1.899       .  S
O442        C452   1.264       .  A
O443        V449   1.902   1_556  S
O443        C453   1.265       .  A
O444        V449   1.897       .  S
O444        C454   1.265       .  A
O445        V450   1.905       .  S
O445        C454   1.265       .  A
O446        V450   1.896   1_556  S
O446        C453   1.265       .  A
O447        V450   1.899       .  S
O447        C452   1.265       .  A
O448        V450   1.904       .  S
O448        C451   1.266       .  A
V449        V450   2.081       .  T
C451        C641   1.485       .  S
C453        C585   1.488       .  S
C454        C613   1.484       .  S
O455        V463   1.895       .  S
O455        C465   1.264       .  A
O456        V463   1.893       .  S
O456        C466   1.261       .  A
O457        V463   1.903       .  S
O457        C467   1.266       .  A
O458        V463   1.903       .  S
O458        C468   1.264       .  A
O459        V464   1.898       .  S
O459        C468   1.265       .  A
O460        V464   1.898       .  S
O460        C467   1.264       .  A
O461        V464   1.902       .  S
O461        C466   1.267       .  A
O462        V464   1.906       .  S
O462        C465   1.267       .  A
V463        V464   2.077       .  T
C465        C566   1.481       .  S
C467        C622   1.480       .  S
C468        C594   1.476       .  S
O469        V477   1.903       .  S
O469        C479   1.265       .  A
O470        V477   1.897       .  S
O470        C480   1.264       .  A
O471        V477   1.904       .  S
O471        C481   1.265       .  A
O472        V477   1.897   1_554  S
O472        C482   1.263       .  A
O473        V478   1.898   1_554  S
O473        C482   1.263       .  A
O474        V478   1.896       .  S
O474        C481   1.263       .  A
O475        V478   1.896       .  S
O475        C480   1.264       .  A
O476        V478   1.900       .  S
O476        C479   1.265       .  A
V477        V478   2.086       .  T
C479        C650   1.485       .  S
C481        C501   1.478       .  S
C482        C529   1.469       .  S
O483        V491   1.904       .  S
O483        C493   1.266       .  A
O484        V491   1.905       .  S
O484        C494   1.267       .  A
O485        V491   1.899       .  S
O485        C495   1.264       .  A
O486        V491   1.897       .  S
O486        C496   1.264       .  A
O487        V492   1.903       .  S
O487        C496   1.265       .  A
O488        V492   1.896       .  S
O488        C495   1.264       .  A
O489        V492   1.897       .  S
O489        C494   1.263       .  A
O490        V492   1.896       .  S
O490        C493   1.265       .  A
V491        V492   2.082       .  T
C493        C557   1.488       .  S
C495        C538   1.481       .  S
C496        C510   1.485       .  S
C497        C498   1.403       .  A
C497        C502   1.400       .  A
C497        H507   1.084       .  S
C498        C503   1.485       .  S
C498        C499   1.416       .  A
C499        C500   1.405       .  A
C499        N504   1.438       .  S
C500        C501   1.402       .  A
C500        H505   1.084       .  S
C501        C502   1.411       .  A
C502        N506   1.430       .  S
C503        C508   1.414       .  A
C503        C512   1.402       .  A
N504        O519   1.263       .  A
N504        O520   1.262       .  A
N506        O517   1.262       .  A
N506        O518   1.262       .  A
C508        C509   1.403       .  A
C508        N513   1.437       .  S
C509        C510   1.406       .  A
C509        H514   1.084       .  S
C510        C511   1.413       .  A
C511        C512   1.401       .  A
C511        N515   1.429       .  S
C512        H516   1.084       .  S
N513        O523   1.263       .  A
N513        O524   1.263       .  A
N515        O521   1.262       .  A
N515        O522   1.262       .  A
C525        C526   1.401       .  A
C525        C530   1.400       .  A
C525        H535   1.084       .  S
C526        C531   1.475       .  S
C526        C527   1.408       .  A
C527        C528   1.399       .  A
C527        N532   1.430       .  S
C528        C529   1.401       .  A
C528        H533   1.083       .  S
C529        C530   1.410       .  A
C530        N534   1.431       .  S
C531        C536   1.410       .  A
C531        C540   1.399       .  A
N532        O547   1.262       .  A
N532        O548   1.262       .  A
N534        O545   1.262       .  A
N534        O546   1.262       .  A
C536        C537   1.400       .  A
C536        N541   1.434       .  S
C537        C538   1.405       .  A
C537        H542   1.084       .  S
C538        C539   1.413       .  A
C539        C540   1.400       .  A
C539        N543   1.428       .  S
C540        H544   1.084       .  S
N541        O551   1.262       .  A
N541        O552   1.262       .  A
N543        O549   1.262       .  A
N543        O550   1.262       .  A
C553        C554   1.404       .  A
C553        C558   1.402   1_455  A
C553        H563   1.084       .  S
C554        C559   1.489       .  S
C554        C555   1.412       .  A
C555        C556   1.400   1_455  A
C555        N560   1.432       .  S
C556        C557   1.406       .  A
C556        H561   1.083       .  S
C557        C558   1.414       .  A
C558        N562   1.429       .  S
C559        C564   1.413       .  A
C559        C568   1.404       .  A
N560        O575   1.262       .  A
N560        O576   1.262       .  A
N562        O573   1.262       .  A
N562        O574   1.262       .  A
C564        C565   1.403       .  A
C564        N569   1.432       .  S
C565        C566   1.404       .  A
C565        H570   1.084       .  S
C566        C567   1.413       .  A
C567        C568   1.399       .  A
C567        N571   1.431       .  S
C568        H572   1.084       .  S
N569        O579   1.262       .  A
N569        O580   1.262       .  A
N571        O577   1.262       .  A
N571        O578   1.262       .  A
C581        C582   1.404       .  A
C581        C586   1.403       .  A
C581        H591   1.084       .  S
C582        C587   1.488       .  S
C582        C583   1.411       .  A
C583        C584   1.399       .  A
C583        N588   1.433       .  S
C584        C585   1.406       .  A
C584        H589   1.083       .  S
C585        C586   1.416       .  A
C586        N590   1.430       .  S
C587        C592   1.415       .  A
C587        C596   1.404       .  A
N588        O603   1.262       .  A
N588        O604   1.262       .  A
N590        O601   1.262       .  A
N590        O602   1.262       .  A
C592        C593   1.405       .  A
C592        N597   1.433       .  S
C593        C594   1.403       .  A
C593        H598   1.084       .  S
C594        C595   1.409       .  A
C595        C596   1.398       .  A
C595        N599   1.431       .  S
C596        H600   1.084       .  S
N597        O607   1.262       .  A
N597        O608   1.262       .  A
N599        O605   1.262       .  A
N599        O606   1.262       .  A
C609        C610   1.402       .  A
C609        C614   1.403       .  A
C609        H619   1.084       .  S
C610        C615   1.481       .  S
C610        C611   1.409       .  A
C611        C612   1.400       .  A
C611        N616   1.434       .  S
C612        C613   1.405       .  A
C612        H617   1.084       .  S
C613        C614   1.414       .  A
C614        N618   1.429       .  S
C615        C620   1.407       .  A
C615        C624   1.403       .  A
N616        O631   1.262       .  A
N616        O632   1.263       .  A
N618        O629   1.262       .  A
N618        O630   1.261       .  A
C620        C621   1.402       .  A
C620        N625   1.430       .  S
C621        C622   1.406       .  A
C621        H626   1.084       .  S
C622        C623   1.411       .  A
C623        C624   1.399       .  A
C623        N627   1.430       .  S
C624        H628   1.084       .  S
N625        O635   1.262       .  A
N625        O636   1.262       .  A
N627        O633   1.262       .  A
N627        O634   1.262       .  A
C637        C638   1.406   1_554  A
C637        C642   1.405       .  A
C637        H647   1.083       .  S
C638        C643   1.493       .  S
C638        C639   1.414       .  A
C639        C640   1.402       .  A
C639        N644   1.435       .  S
C640        C641   1.404   1_556  A
C640        H645   1.084       .  S
C641        C642   1.414       .  A
C642        N646   1.433       .  S
C643        C648   1.414       .  A
C643        C652   1.405   1_556  A
N644        O659   1.262       .  A
N644        O660   1.263       .  A
N646        O657   1.262       .  A
N646        O658   1.263       .  A
C648        C649   1.405   1_455  A
C648        N653   1.433       .  S
C649        C650   1.405       .  A
C649        H654   1.084       .  S
C650        C651   1.413   1_556  A
C651        C652   1.400   1_655  A
C651        N655   1.431       .  S
C652        H656   1.084       .  S
N653        O663   1.262       .  A
N653        O664   1.262       .  A
N655        O661   1.262       .  A
N655        O662   1.262       .  A
C665        C666   1.409       .  A
C665        C670   1.402       .  A
C665        H675   1.082       .  S
C666        C671   1.500       .  S
C666        C667   1.420       .  A
C667        C668   1.401       .  A
C667        N672   1.435       .  S
C668        C669   1.402       .  A
C668        H673   1.084       .  S
C669        C670   1.413       .  A
C670        N674   1.438       .  S
C671        C676   1.422       .  A
C671        C680   1.410       .  A
N672        O687   1.263       .  A
N672        O688   1.263       .  A
N674        O685   1.262       .  A
N674        O686   1.263       .  A
C676        C677   1.400       .  A
C676        N681   1.435       .  S
C677        C678   1.399       .  A
C677        H682   1.084       .  S
C678        C679   1.408       .  A
C679        C680   1.401       .  A
C679        N683   1.434       .  S
C680        H684   1.082       .  S
N681        O691   1.263       .  A
N681        O692   1.262       .  A
N683        O689   1.263       .  A
N683        O690   1.262       .  A
C693        C694   1.404   1_554  A
C693        C698   1.401       .  A
C693        H703   1.084       .  S
C694        C699   1.482       .  S
C694        C695   1.414       .  A
C695        C696   1.402       .  A
C695        N700   1.435       .  S
C696        C697   1.402       .  A
C696        H701   1.084       .  S
C697        C698   1.409   1_556  A
C698        N702   1.434       .  S
C699        C704   1.415       .  A
C699        C708   1.403   1_556  A
N700        O715   1.262       .  A
N700        O716   1.262       .  A
N702        O713   1.262       .  A
N702        O714   1.262       .  A
C704        C705   1.405       .  A
C704        N709   1.437       .  S
C705        C706   1.403       .  A
C705        H710   1.084       .  S
C706        C707   1.408   1_556  A
C707        C708   1.398       .  A
C707        N711   1.429       .  S
C708        H712   1.084       .  S
N709        O719   1.263       .  A
N709        O720   1.262       .  A
N711        O717   1.262       .  A
N711        O718   1.262       .  A
C721        C722   1.402       .  A
C721        C726   1.402       .  A
C721        H731   1.084       .  S
C722        C727   1.482       .  S
C722        C723   1.411       .  A
C723        C724   1.401       .  A
C723        N728   1.431       .  S
C724        C725   1.403       .  A
C724        H729   1.084       .  S
C725        C726   1.412       .  A
C726        N730   1.431       .  S
C727        C732   1.410       .  A
C727        C736   1.403       .  A
N728        O743   1.262       .  A
N728        O744   1.262       .  A
N730        O741   1.262       .  A
N730        O742   1.262       .  A
C732        C733   1.402       .  A
C732        N737   1.429       .  S
C733        C734   1.403       .  A
C733        H738   1.084       .  S
C734        C735   1.409       .  A
C735        C736   1.399       .  A
C735        N739   1.428       .  S
C736        H740   1.084       .  S
N737        O747   1.262       .  A
N737        O748   1.262       .  A
N739        O745   1.262       .  A
N739        O746   1.262       .  A
C749        C750   1.405       .  A
C749        C754   1.401       .  A
C749        H759   1.084       .  S
C750        C755   1.487   1_554  S
C750        C751   1.416   1_554  A
C751        C752   1.402       .  A
C751        N756   1.438       .  S
C752        C753   1.403   1_556  A
C752        H757   1.084       .  S
C753        C754   1.413       .  A
C754        N758   1.437       .  S
C755        C760   1.418       .  A
C755        C764   1.406   1_556  A
N756        O771   1.263       .  A
N756        O772   1.263       .  A
N758        O769   1.262       .  A
N758        O770   1.263       .  A
C760        C761   1.403       .  A
C760        N765   1.438       .  S
C761        C762   1.400   1_556  A
C761        H766   1.084       .  S
C762        C763   1.407       .  A
C763        C764   1.399       .  A
C763        N767   1.432       .  S
C764        H768   1.084       .  S
N765        O775   1.263       .  A
N765        O776   1.263       .  A
N767        O773   1.262       .  A
N767        O774   1.262       .  A
C777        C778   1.408       .  A
C777        C782   1.402       .  A
C777        H787   1.083       .  S
C778        C783   1.488       .  S
C778        C779   1.414       .  A
C779        C780   1.400       .  A
C779        N784   1.433       .  S
C780        C781   1.400       .  A
C780        H785   1.084       .  S
C781        C782   1.405       .  A
C782        N786   1.428       .  S
C783        C788   1.413       .  A
C783        C792   1.406       .  A
N784        O799   1.262       .  A
N784        O800   1.262       .  A
N786        O797   1.262       .  A
N786        O798   1.262       .  A
C788        C789   1.402       .  A
C788        N793   1.433       .  S
C789        C790   1.402       .  A
C789        H794   1.084       .  S
C790        C791   1.408       .  A
C791        C792   1.401       .  A
C791        N795   1.430       .  S
C792        H796   1.084       .  S
N793        O803   1.262       .  A
N793        O804   1.262       .  A
N795        O801   1.262       .  A
N795        O802   1.262       .  A
C805        C806   1.408       .  A
C805        C810   1.399       .  A
C805        H815   1.082       .  S
C806        C811   1.498       .  S
C806        C807   1.419       .  A
C807        C808   1.403       .  A
C807        N812   1.435       .  S
C808        C809   1.403       .  A
C808        H813   1.084       .  S
C809        C810   1.411       .  A
C810        N814   1.437       .  S
C811        C816   1.418       .  A
C811        C820   1.409       .  A
N812        O827   1.263       .  A
N812        O828   1.262       .  A
N814        O825   1.262       .  A
N814        O826   1.263       .  A
C816        C817   1.398       .  A
C816        N821   1.436       .  S
C817        C818   1.401       .  A
C817        H822   1.084       .  S
C818        C819   1.414       .  A
C819        C820   1.406       .  A
C819        N823   1.439       .  S
C820        H824   1.082       .  S
N821        O831   1.263       .  A
N821        O832   1.263       .  A
N823        O829   1.262       .  A
N823        O830   1.263       .  A
C833        C834   1.402       .  A
C833        C838   1.401       .  A
C833        H843   1.084       .  S
C834        C839   1.478       .  S
C834        C835   1.409   1_554  A
C835        C836   1.399       .  A
C835        N840   1.429       .  S
C836        C837   1.401   1_556  A
C836        H841   1.084       .  S
C837        C838   1.409       .  A
C838        N842   1.432       .  S
C839        C844   1.407       .  A
C839        C848   1.402   1_554  A
N840        O855   1.262       .  A
N840        O856   1.262       .  A
N842        O853   1.262       .  A
N842        O854   1.262       .  A
C844        C845   1.399       .  A
C844        N849   1.429       .  S
C845        C846   1.405       .  A
C845        H850   1.084       .  S
C846        C847   1.414   1_554  A
C847        C848   1.402       .  A
C847        N851   1.434       .  S
C848        H852   1.084       .  S
N849        O859   1.262       .  A
N849        O860   1.262       .  A
N851        O857   1.262       .  A
N851        O858   1.262       .  A
C861        C862   1.403   1_556  A
C861        C866   1.397       .  A
C861        H871   1.084       .  S
C862        C867   1.487       .  S
C862        C863   1.418       .  A
C863        C864   1.408       .  A
C863        N868   1.436       .  S
C864        C865   1.402       .  A
C864        H869   1.083       .  S
C865        C866   1.408   1_554  A
C866        N870   1.431       .  S
C867        C872   1.415       .  A
C867        C876   1.405   1_554  A
N868        O883   1.262       .  A
N868        O884   1.262       .  A
N870        O881   1.262       .  A
N870        O882   1.262       .  A
C872        C873   1.405       .  A
C872        N877   1.437       .  S
C873        C874   1.404       .  A
C873        H878   1.084       .  S
C874        C875   1.409   1_554  A
C875        C876   1.400       .  A
C875        N879   1.431       .  S
C876        H880   1.084       .  S
N877        O887   1.262       .  A
N877        O888   1.263       .  A
N879        O885   1.262       .  A
N879        O886   1.262       .  A
C889        C890   1.406       .  A
C889        C894   1.403       .  A
C889        H899   1.084       .  S
C890        C895   1.487       .  S
C890        C891   1.411       .  A
C891        C892   1.399       .  A
C891        N896   1.432       .  S
C892        C893   1.403       .  A
C892        H897   1.084       .  S
C893        C894   1.409       .  A
C894        N898   1.429       .  S
C895        C900   1.411       .  A
C895        C904   1.404       .  A
N896        O911   1.262       .  A
N896        O912   1.262       .  A
N898        O909   1.262       .  A
N898        O910   1.262       .  A
C900        C901   1.403       .  A
C900        N905   1.433       .  S
C901        C902   1.407       .  A
C901        H906   1.084       .  S
C902        C903   1.413       .  A
C903        C904   1.399       .  A
C903        N907   1.429       .  S
C904        H908   1.084       .  S
N905        O915   1.262       .  A
N905        O916   1.262       .  A
N907        O913   1.262       .  A
N907        O914   1.261       .  A
C917        C918   1.406       .  A
C917        C922   1.403       .  A
C917        H927   1.084       .  S
C918        C923   1.489       .  S
C918        C919   1.412       .  A
C919        C920   1.399       .  A
C919        N924   1.433       .  S
C920        C921   1.404       .  A
C920        H925   1.084       .  S
C921        C922   1.413       .  A
C922        N926   1.429       .  S
C923        C928   1.413       .  A
C923        C932   1.405       .  A
N924        O939   1.262       .  A
N924        O940   1.262       .  A
N926        O937   1.262       .  A
N926        O938   1.262       .  A
C928        C929   1.404       .  A
C928        N933   1.433       .  S
C929        C930   1.406       .  A
C929        H934   1.084       .  S
C930        C931   1.411       .  A
C931        C932   1.399       .  A
C931        N935   1.431       .  S
C932        H936   1.084       .  S
N933        O943   1.262       .  A
N933        O944   1.262       .  A
N935        O941   1.262       .  A
N935        O942   1.262       .  A
C945        C946   1.400       .  A
C945        C950   1.398       .  A
C945        H955   1.084       .  S
C946        C951   1.481       .  S
C946        C947   1.413       .  A
C947        C948   1.405       .  A
C947        N952   1.434       .  S
C948        C949   1.405       .  A
C948        H953   1.084       .  S
C949        C950   1.412       .  A
C950        N954   1.430       .  S
C951        C956   1.413       .  A
C951        C960   1.401       .  A
N952        O967   1.262       .  A
N952        O968   1.262       .  A
N954        O965   1.262       .  A
N954        O966   1.262       .  A
C956        C957   1.405   1_545  A
C956        N961   1.435       .  S
C957        C958   1.404       .  A
C957        H962   1.084       .  S
C958        C959   1.411       .  A
C959        C960   1.399   1_565  A
C959        N963   1.432       .  S
C960        H964   1.084       .  S
N961        O971   1.263       .  A
N961        O972   1.262       .  A
N963        O969   1.262       .  A
N963        O970   1.262       .  A
C973        C974   1.403       .  A
C973        C978   1.402       .  A
C973        H983   1.084       .  S
C974        C979   1.483       .  S
C974        C975   1.411       .  A
C975        C976   1.402       .  A
C975        N980   1.435       .  S
C976        C977   1.405       .  A
C976        H981   1.084       .  S
C977        C978   1.414       .  A
C978        N982   1.434       .  S
C979        C984   1.411       .  A
C979        C988   1.404       .  A
N980        O995   1.262       .  A
N980        O996   1.263       .  A
N982        O993   1.262       .  A
N982        O994   1.263       .  A
C984        C985   1.401       .  A
C984        N989   1.435       .  S
C985        C986   1.404       .  A
C985        H990   1.084       .  S
C986        C987   1.412       .  A
C987        C988   1.401       .  A
C987        N991   1.433       .  S
C988        H992   1.084       .  S
N989        O999   1.262       .  A
N989       O1000   1.263       .  A
N991        O997   1.263       .  A
N991        O998   1.262       .  A
C1001      C1002   1.406       .  A
C1001      C1006   1.401       .  A
C1001      H1011   1.084       .  S
C1002      C1007   1.486       .  S
C1002      C1003   1.412       .  A
C1003      C1004   1.400       .  A
C1003      N1008   1.435       .  S
C1004      C1005   1.404       .  A
C1004      H1009   1.084       .  S
C1005      C1006   1.410       .  A
C1006      N1010   1.430       .  S
C1007      C1012   1.411       .  A
C1007      C1016   1.405       .  A
N1008      O1023   1.262       .  A
N1008      O1024   1.263       .  A
N1010      O1021   1.262       .  A
N1010      O1022   1.262       .  A
C1012      C1013   1.401       .  A
C1012      N1017   1.433       .  S
C1013      C1014   1.405       .  A
C1013      H1018   1.084       .  S
C1014      C1015   1.410       .  A
C1015      C1016   1.399       .  A
C1015      N1019   1.430       .  S
C1016      H1020   1.084       .  S
N1017      O1027   1.262       .  A
N1017      O1028   1.262       .  A
N1019      O1025   1.262       .  A
N1019      O1026   1.262       .  A
C1029      C1030   1.403   1_556  A
C1029      C1034   1.396   1_545  A
C1029      H1039   1.084       .  S
C1030      C1035   1.484       .  S
C1030      C1031   1.415   1_545  A
C1031      C1032   1.405       .  A
C1031      N1036   1.436   1_565  S
C1032      C1033   1.404       .  A
C1032      H1037   1.084       .  S
C1033      C1034   1.407   1_554  A
C1034      N1038   1.428       .  S
C1035      C1040   1.415       .  A
C1035      C1044   1.400       .  A
N1036      O1051   1.262       .  A
N1036      O1052   1.263   1_545  A
N1038      O1049   1.261       .  A
N1038      O1050   1.262       .  A
C1040      C1041   1.406       .  A
C1040      N1045   1.437   1_554  S
C1041      C1042   1.407       .  A
C1041      H1046   1.083   1_554  S
C1042      C1043   1.416       .  A
C1043      C1044   1.396       .  A
C1043      N1047   1.430       .  S
C1044      H1048   1.084       .  S
N1045      O1055   1.262       .  A
N1045      O1056   1.263   1_556  A
N1047      O1053   1.262   1_554  A
N1047      O1054   1.262       .  A
C1057      C1058   1.403       .  A
C1057      C1062   1.399       .  A
C1057      H1067   1.084       .  S
C1058      C1063   1.487       .  S
C1058      C1059   1.416       .  A
C1059      C1060   1.403       .  A
C1059      N1064   1.438       .  S
C1060      C1061   1.406       .  A
C1060      H1065   1.083       .  S
C1061      C1062   1.414       .  A
C1062      N1066   1.430       .  S
C1063      C1068   1.417       .  A
C1063      C1072   1.405       .  A
N1064      O1079   1.262       .  A
N1064      O1080   1.263       .  A
N1066      O1077   1.262       .  A
N1066      O1078   1.262       .  A
C1068      C1069   1.403       .  A
C1068      N1073   1.438       .  S
C1069      C1070   1.402       .  A
C1069      H1074   1.084       .  S
C1070      C1071   1.408       .  A
C1071      C1072   1.399       .  A
C1071      N1075   1.431       .  S
C1072      H1076   1.084       .  S
N1073      O1083   1.263       .  A
N1073      O1084   1.263       .  A
N1075      O1081   1.262       .  A
N1075      O1082   1.262       .  A
C1085      C1086   1.402       .  A
C1085      C1090   1.396       .  A
C1085      H1095   1.084       .  S
C1086      C1091   1.480       .  S
C1086      C1087   1.415       .  A
C1087      C1088   1.403       .  A
C1087      N1092   1.437       .  S
C1088      C1089   1.403       .  A
C1088      H1093   1.083       .  S
C1089      C1090   1.409       .  A
C1090      N1094   1.430       .  S
C1091      C1096   1.413       .  A
C1091      C1100   1.403       .  A
N1092      O1107   1.263       .  A
N1092      O1108   1.263       .  A
N1094      O1105   1.262       .  A
N1094      O1106   1.262       .  A
C1096      C1097   1.401       .  A
C1096      N1101   1.436       .  S
C1097      C1098   1.405       .  A
C1097      H1102   1.084       .  S
C1098      C1099   1.410       .  A
C1099      C1100   1.398       .  A
C1099      N1103   1.430       .  S
C1100      H1104   1.084       .  S
N1101      O1111   1.262       .  A
N1101      O1112   1.263       .  A
N1103      O1109   1.262       .  A
N1103      O1110   1.262       .  A
C1113      C1114   1.402       .  A
C1113      C1118   1.397   1_455  A
C1113      H1123   1.084       .  S
C1114      C1119   1.481       .  S
C1114      C1115   1.414       .  A
C1115      C1116   1.402   1_455  A
C1115      N1120   1.437       .  S
C1116      C1117   1.406       .  A
C1116      H1121   1.083       .  S
C1117      C1118   1.412       .  A
C1118      N1122   1.429       .  S
C1119      C1124   1.416       .  A
C1119      C1128   1.403       .  A
N1120      O1135   1.262       .  A
N1120      O1136   1.263       .  A
N1122      O1133   1.262       .  A
N1122      O1134   1.262       .  A
C1124      C1125   1.404       .  A
C1124      N1129   1.437       .  S
C1125      C1126   1.402       .  A
C1125      H1130   1.084       .  S
C1126      C1127   1.408       .  A
C1127      C1128   1.395       .  A
C1127      N1131   1.430       .  S
C1128      H1132   1.084       .  S
N1129      O1139   1.263       .  A
N1129      O1140   1.263       .  A
N1131      O1137   1.262       .  A
N1131      O1138   1.262       .  A
C1141      C1142   1.403       .  A
C1141      C1146   1.398       .  A
C1141      H1151   1.084       .  S
C1142      C1147   1.484       .  S
C1142      C1143   1.416       .  A
C1143      C1144   1.402       .  A
C1143      N1148   1.438       .  S
C1144      C1145   1.404       .  A
C1144      H1149   1.084       .  S
C1145      C1146   1.412       .  A
C1146      N1150   1.430       .  S
C1147      C1152   1.416       .  A
C1147      C1156   1.404       .  A
N1148      O1163   1.263       .  A
N1148      O1164   1.263       .  A
N1150      O1161   1.262       .  A
N1150      O1162   1.262       .  A
C1152      C1153   1.402       .  A
C1152      N1157   1.438       .  S
C1153      C1154   1.404       .  A
C1153      H1158   1.084       .  S
C1154      C1155   1.409       .  A
C1155      C1156   1.398       .  A
C1155      N1159   1.429       .  S
C1156      H1160   1.084       .  S
N1157      O1167   1.263       .  A
N1157      O1168   1.263       .  A
N1159      O1165   1.262       .  A
N1159      O1166   1.262       .  A
C1169      C1170   1.400       .  A
C1169      C1174   1.399       .  A
C1169      H1179   1.084       .  S
C1170      C1175   1.479       .  S
C1170      C1171   1.411       .  A
C1171      C1172   1.401       .  A
C1171      N1176   1.433       .  S
C1172      C1173   1.404       .  A
C1172      H1177   1.084       .  S
C1173      C1174   1.413       .  A
C1174      N1178   1.429       .  S
C1175      C1180   1.414       .  A
C1175      C1184   1.402       .  A
N1176      O1191   1.262       .  A
N1176      O1192   1.262       .  A
N1178      O1189   1.262       .  A
N1178      O1190   1.262       .  A
C1180      C1181   1.402       .  A
C1180      N1185   1.438       .  S
C1181      C1182   1.402       .  A
C1181      H1186   1.084       .  S
C1182      C1183   1.412       .  A
C1183      C1184   1.401       .  A
C1183      N1187   1.432       .  S
C1184      H1188   1.084       .  S
N1185      O1195   1.263       .  A
N1185      O1196   1.262       .  A
N1187      O1193   1.262       .  A
N1187      O1194   1.262       .  A
C1197      C1198   1.403       .  A
C1197      C1202   1.402   1_455  A
C1197      H1207   1.084       .  S
C1198      C1203   1.482       .  S
C1198      C1199   1.410   1_554  A
C1199      C1200   1.400   1_455  A
C1199      N1204   1.434       .  S
C1200      C1201   1.406   1_556  A
C1200      H1205   1.084       .  S
C1201      C1202   1.414       .  A
C1202      N1206   1.432       .  S
C1203      C1208   1.412   1_554  A
C1203      C1212   1.403       .  A
N1204      O1219   1.262       .  A
N1204      O1220   1.263       .  A
N1206      O1217   1.262       .  A
N1206      O1218   1.262       .  A
C1208      C1209   1.403       .  A
C1208      N1213   1.434       .  S
C1209      C1210   1.404   1_556  A
C1209      H1214   1.083       .  S
C1210      C1211   1.410       .  A
C1211      C1212   1.398       .  A
C1211      N1215   1.431       .  S
C1212      H1216   1.084       .  S
N1213      O1223   1.262       .  A
N1213      O1224   1.263       .  A
N1215      O1221   1.262       .  A
N1215      O1222   1.262       .  A
C1225      C1226   1.403       .  A
C1225      C1230   1.398       .  A
C1225      H1235   1.084       .  S
C1226      C1231   1.483       .  S
C1226      C1227   1.411       .  A
C1227      C1228   1.400       .  A
C1227      N1232   1.431       .  S
C1228      C1229   1.404       .  A
C1228      H1233   1.084       .  S
C1229      C1230   1.413       .  A
C1230      N1234   1.431       .  S
C1231      C1236   1.412       .  A
C1231      C1240   1.403       .  A
N1232      O1247   1.262       .  A
N1232      O1248   1.262       .  A
N1234      O1245   1.262       .  A
N1234      O1246   1.262       .  A
C1236      C1237   1.402       .  A
C1236      N1241   1.433       .  S
C1237      C1238   1.403       .  A
C1237      H1242   1.084       .  S
C1238      C1239   1.411       .  A
C1239      C1240   1.397       .  A
C1239      N1243   1.430       .  S
C1240      H1244   1.084       .  S
N1241      O1251   1.262       .  A
N1241      O1252   1.262       .  A
N1243      O1249   1.262       .  A
N1243      O1250   1.262       .  A
C1253      C1254   1.405       .  A
C1253      C1258   1.401       .  A
C1253      H1263   1.084       .  S
C1254      C1259   1.486       .  S
C1254      C1255   1.412       .  A
C1255      C1256   1.400       .  A
C1255      N1260   1.434       .  S
C1256      C1257   1.404       .  A
C1256      H1261   1.084       .  S
C1257      C1258   1.413       .  A
C1258      N1262   1.431       .  S
C1259      C1264   1.413       .  A
C1259      C1268   1.405       .  A
N1260      O1275   1.262       .  A
N1260      O1276   1.262       .  A
N1262      O1273   1.262       .  A
N1262      O1274   1.262       .  A
C1264      C1265   1.402       .  A
C1264      N1269   1.434       .  S
C1265      C1266   1.404       .  A
C1265      H1270   1.084       .  S
C1266      C1267   1.412       .  A
C1267      C1268   1.400       .  A
C1267      N1271   1.433       .  S
C1268      H1272   1.084       .  S
N1269      O1279   1.262       .  A
N1269      O1280   1.262       .  A
N1271      O1277   1.263       .  A
N1271      O1278   1.262       .  A
C1281      C1282   1.405       .  A
C1281      C1286   1.400   1_545  A
C1281      H1291   1.084       .  S
C1282      C1287   1.489       .  S
C1282      C1283   1.417       .  A
C1283      C1284   1.404   1_545  A
C1283      N1288   1.438       .  S
C1284      C1285   1.404       .  A
C1284      H1289   1.084       .  S
C1285      C1286   1.408       .  A
C1286      N1290   1.428       .  S
C1287      C1292   1.416       .  A
C1287      C1296   1.404       .  A
N1288      O1303   1.262       .  A
N1288      O1304   1.263       .  A
N1290      O1301   1.261       .  A
N1290      O1302   1.262       .  A
C1292      C1293   1.403       .  A
C1292      N1297   1.438       .  S
C1293      C1294   1.406       .  A
C1293      H1298   1.083       .  S
C1294      C1295   1.413       .  A
C1295      C1296   1.401       .  A
C1295      N1299   1.429       .  S
C1296      H1300   1.084       .  S
N1297      O1307   1.262       .  A
N1297      O1308   1.263       .  A
N1299      O1305   1.262       .  A
N1299      O1306   1.262       .  A
C1309      C1310   1.405       .  A
C1309      C1314   1.399       .  A
C1309      H1319   1.084       .  S
C1310      C1315   1.487       .  S
C1310      C1311   1.413       .  A
C1311      C1312   1.401       .  A
C1311      N1316   1.434       .  S
C1312      C1313   1.405       .  A
C1312      H1317   1.084       .  S
C1313      C1314   1.411       .  A
C1314      N1318   1.431       .  S
C1315      C1320   1.411       .  A
C1315      C1324   1.404       .  A
N1316      O1331   1.262       .  A
N1316      O1332   1.262       .  A
N1318      O1329   1.262       .  A
N1318      O1330   1.262       .  A
C1320      C1321   1.401       .  A
C1320      N1325   1.432       .  S
C1321      C1322   1.405       .  A
C1321      H1326   1.084       .  S
C1322      C1323   1.414       .  A
C1323      C1324   1.400       .  A
C1323      N1327   1.431       .  S
C1324      H1328   1.084       .  S
N1325      O1335   1.262       .  A
N1325      O1336   1.262       .  A
N1327      O1333   1.262       .  A
N1327      O1334   1.262       .  A
C1337      C1338   1.404       .  A
C1337      C1342   1.399       .  A
C1337      H1347   1.084       .  S
C1338      C1343   1.488       .  S
C1338      C1339   1.412       .  A
C1339      C1340   1.401       .  A
C1339      N1344   1.434       .  S
C1340      C1341   1.406       .  A
C1340      H1345   1.084       .  S
C1341      C1342   1.414       .  A
C1342      N1346   1.431       .  S
C1343      C1348   1.414       .  A
C1343      C1352   1.405       .  A
N1344      O1359   1.262       .  A
N1344      O1360   1.262       .  A
N1346      O1357   1.262       .  A
N1346      O1358   1.261       .  A
C1348      C1349   1.401       .  A
C1348      N1353   1.434       .  S
C1349      C1350   1.402       .  A
C1349      H1354   1.084       .  S
C1350      C1351   1.409       .  A
C1351      C1352   1.399       .  A
C1351      N1355   1.430       .  S
C1352      H1356   1.084       .  S
N1353      O1363   1.262       .  A
N1353      O1364   1.262       .  A
N1355      O1361   1.262       .  A
N1355      O1362   1.262       .  A
C1365      C1366   1.402       .  A
C1365      C1370   1.402   1_545  A
C1365      H1375   1.084       .  S
C1366      C1371   1.493       .  S
C1366      C1367   1.416       .  A
C1367      C1368   1.408   1_545  A
C1367      N1372   1.436       .  S
C1368      C1369   1.407       .  A
C1368      H1373   1.083       .  S
C1369      C1370   1.419       .  A
C1370      N1374   1.432       .  S
C1371      C1376   1.418   1_556  A
C1371      C1380   1.405       .  A
N1372      O1387   1.263       .  A
N1372      O1388   1.263       .  A
N1374      O1385   1.262       .  A
N1374      O1386   1.262   1_556  A
C1376      C1377   1.408       .  A
C1376      N1381   1.437       .  S
C1377      C1378   1.404   1_554  A
C1377      H1382   1.084       .  S
C1378      C1379   1.411       .  A
C1379      C1380   1.401       .  A
C1379      N1383   1.429       .  S
C1380      H1384   1.084       .  S
N1381      O1391   1.263       .  A
N1381      O1392   1.262       .  A
N1383      O1389   1.262       .  A
N1383      O1390   1.262       .  A
