geometry optimzed in LAMMPS
_audit_creation_date              2020-11-30 
_audit_creation_method            'lammps2cif' 
_symmetry_space_group_name_H-M    'P1' 
_symmetry_Int_Tables_number       1 
_symmetry_cell_setting            triclinic 
loop_ 
_symmetry_equiv_pos_as_xyz 
  x,y,z 
_cell_length_a                    34.31458991625226 
_cell_length_b                    34.80410834562048 
_cell_length_c                    34.7691570434279 
_cell_angle_alpha                 90.6635820254908 
_cell_angle_beta                  89.70497522760257 
_cell_angle_gamma                 89.87002009728485 
loop_ 
_atom_site_label 
_atom_site_type_symbol 
_atom_site_fract_x 
_atom_site_fract_y 
_atom_site_fract_z 
_atom_site_charge 
O1          O  0.61418114  0.93518172  0.26649810    -0.87660
O2          O  0.45621238  0.08659875  0.25227687    -0.87820
O3          O  0.57265532  0.04407006  0.20028685    -0.89490
O4          O  0.56458385  0.04980244  0.32242401    -0.88250
O5          O  0.53111325  0.01717604  0.36926200    -0.87840
O6          O  0.53737868  0.01305000  0.15330595    -0.89210
O7          O  0.52318447  0.08868640  0.25189360    -0.87690
O8          O  0.61532782  0.00109679  0.26647573    -0.87270
Zr9        Zr  0.54700615  0.02247127  0.26105792     2.84310
O10         O  0.49056970  0.02260393  0.29955930    -1.09250
O11         O  0.54835732  0.96738172  0.22165087    -1.09980
C12         C  0.63189280  0.96772217  0.26910709     1.05450
C13         C  0.48904410  0.10406977  0.24753556     1.05400
C14         C  0.56298594  0.03781188  0.16506157     1.08380
C15         C  0.55488988  0.04344010  0.35754466     1.06160
H16         H  0.49162704  0.04205570  0.20618437     0.31720
O17         O  0.49145363  0.02007677  0.22275256    -1.30200
H18         H  0.56923767  0.96872612  0.31722612     0.31390
O19         O  0.54696690  0.96827920  0.30037128    -1.31880
O20         O  0.36737106  0.99760885  0.26608217    -0.87650
O21         O  0.52676093  0.84633534  0.25097228    -0.89150
O22         O  0.45044841  0.01553642  0.15297754    -0.87730
O23         O  0.44560495  0.01336477  0.36872457    -0.87780
O24         O  0.53435680  0.92255557  0.36979972    -0.87490
O25         O  0.54008297  0.92187200  0.15239865    -0.87290
O26         O  0.41356293  0.88964033  0.19857767    -0.87660
O27         O  0.41544609  0.88746813  0.32097526    -0.87130
O28         O  0.44834096  0.92035976  0.15146162    -0.88190
O29         O  0.44330233  0.92487939  0.36818252    -0.87350
O30         O  0.41215703  0.04385496  0.19985482    -0.87750
O31         O  0.57514080  0.89266185  0.20024283    -0.87470
O32         O  0.56821873  0.88910232  0.32296812    -0.87120
O33         O  0.41481754  0.04820252  0.32220981    -0.87530
O34         O  0.37034271  0.93177418  0.26508166    -0.87820
O35         O  0.45993611  0.84528077  0.25271957    -0.89160
Zr36       Zr  0.43496994  0.02057599  0.26074647     2.83100
Zr37       Zr  0.54765800  0.91314818  0.26106973     2.83500
Zr38       Zr  0.49276229  0.96663033  0.18231780     2.84090
Zr39       Zr  0.49070376  0.96798100  0.33837540     2.83360
Zr40       Zr  0.43777981  0.91174965  0.25991374     2.84220
O41         O  0.49214286  0.91187939  0.30014252    -1.09730
O42         O  0.43580624  0.96596166  0.22046696    -1.09230
C43         C  0.35173410  0.96386881  0.26858303     1.05420
C44         C  0.49352256  0.82903320  0.24770882     1.08040
C45         C  0.42436258  0.04007169  0.16495852     1.05600
C46         C  0.42189278  0.03989200  0.35754949     1.05960
C47         C  0.55938949  0.89695037  0.35829509     1.05540
C48         C  0.56663574  0.89855889  0.16481657     1.05090
C49         C  0.42269719  0.89569854  0.16321621     1.05520
C50         C  0.41992563  0.89813635  0.35626434     1.05030
H51         H  0.49384724  0.89061416  0.20441831     0.31710
O52         O  0.49328320  0.91281007  0.22127523    -1.30830
H53         H  0.41297630  0.96650516  0.31576079     0.31730
O54         O  0.43578949  0.96649522  0.29942530    -1.32220
C55         C  0.48443765  0.67888249  0.17278260     0.01960
C56         C  0.44746021  0.66329180  0.16297708    -0.14190
C57         C  0.44509929  0.62864364  0.14181878    -0.00540
C58         C  0.47906858  0.61102799  0.12874620    -0.12710
C59         C  0.51562155  0.62422042  0.13948635     0.01950
C60         C  0.51842077  0.65833497  0.16133239    -0.12130
H61         H  0.42077736  0.67771871  0.17152230     0.07550
H62         H  0.47677504  0.58585040  0.11020749     0.05080
H63         H  0.54697184  0.66822037  0.16997510     0.04930
C64         C  0.48390132  0.24962791  0.16729864     0.01960
C65         C  0.44836836  0.26367144  0.15222080    -0.14190
C66         C  0.44805828  0.29500348  0.12725251    -0.00540
C67         C  0.48292842  0.31355123  0.11884654    -0.12710
C68         C  0.51804860  0.30270018  0.13576266     0.01950
C69         C  0.51869348  0.26986665  0.15905240    -0.12130
H70         H  0.42090553  0.25029178  0.15944663     0.07550
H71         H  0.48238186  0.33763021  0.09940792     0.05080
H72         H  0.54619624  0.26025734  0.17053886     0.04930
C73         C  0.19327469  0.95278933  0.32657288     0.01960
C74         C  0.17553266  0.91660328  0.33226018    -0.14190
C75         C  0.14009938  0.91398204  0.35209000    -0.00540
C76         C  0.12137456  0.94712582  0.36501864    -0.12710
C77         C  0.13881706  0.98305816  0.36135825     0.01950
C78         C  0.17445518  0.98603832  0.34142612    -0.12130
H79         H  0.18945692  0.89034278  0.32237074     0.07550
H80         H  0.09398268  0.94447223  0.38048537     0.05080
H81         H  0.18850583  0.01378766  0.33971922     0.04930
C82         C  0.79422020  0.95559026  0.31357511     0.01960
C83         C  0.81479837  0.98916146  0.32408456    -0.14190
C84         C  0.85179390  0.98653531  0.34090644    -0.00540
C85         C  0.86941704  0.95060844  0.34423327    -0.12710
C86         C  0.84792413  0.91715889  0.33871020     0.01950
C87         C  0.81113017  0.91934279  0.32155009    -0.12130
H88         H  0.80066101  0.01695229  0.32261090     0.07550
H89         H  0.89797483  0.94854320  0.35733691     0.05080
H90         H  0.79502283  0.89303228  0.31682829     0.04930
O91         O  0.33731539  0.50960271  0.05160729    -0.87660
O92         O  0.11837285  0.51324300  0.05436615    -0.87820
O93         O  0.23867440  0.58538237  0.04424433    -0.89490
O94         O  0.22321114  0.49581064  0.13139239    -0.88250
O95         O  0.22164034  0.43000011  0.12791621    -0.87840
O96         O  0.23996292  0.58471209  0.97829885    -0.89210
O97         O  0.16686126  0.54729462  0.08456589    -0.87690
O98         O  0.29005465  0.54271130  0.08565671    -0.87270
Zr99       Zr  0.22809601  0.51896243  0.06472305     2.84310
O100        O  0.18765684  0.46506360  0.06435457    -1.09250
O101        O  0.26691643  0.51820823  0.00933791    -1.09980
C102        C  0.32558026  0.53566477  0.07618114     1.05450
C103        C  0.13085647  0.54007486  0.07725683     1.05400
C104        C  0.24377141  0.60177320  0.01136637     1.08380
C105        C  0.21995231  0.46213366  0.14665218     1.06160
H106        H  0.17350370  0.54425521  0.00992181     0.31720
O107        O  0.18856259  0.52078214  0.00994523    -1.30200
H108        H  0.28406479  0.46295246  0.08614141     0.31390
O109        O  0.26770963  0.46375881  0.06362767    -1.31880
O110        O  0.11274352  0.42719608  0.96293493    -0.87650
O111        O  0.33367774  0.41806650  0.96056832    -0.89150
O112        O  0.16788610  0.54363534  0.93281805    -0.87730
O113        O  0.16595855  0.38348976  0.08152766    -0.87780
O114        O  0.28880476  0.38410218  0.08168249    -0.87490
O115        O  0.28976341  0.53910690  0.92801702    -0.87290
O116        O  0.21460938  0.43271731  0.88731097    -0.87660
O117        O  0.23494371  0.34379952  0.97338119    -0.87130
O118        O  0.21833403  0.49857568  0.88791510    -0.88190
O119        O  0.23587279  0.34435185  0.03936642    -0.87350
O120        O  0.11890098  0.51119422  0.96405940    -0.87750
O121        O  0.33665006  0.50877361  0.96336800    -0.87470
O122        O  0.33588511  0.41321685  0.04511417    -0.87120
O123        O  0.11774298  0.42008047  0.05451240    -0.87530
O124        O  0.15668640  0.38977815  0.92936055    -0.87820
O125        O  0.28613338  0.38782676  0.92496404    -0.89160
Zr126      Zr  0.14780026  0.46636494  0.01008387     2.83100
Zr127      Zr  0.30543912  0.46347264  0.00696627     2.83500
Zr128      Zr  0.22832786  0.51900746  0.95481360     2.84090
Zr129      Zr  0.22680917  0.41008715  0.06118412     2.83360
Zr130      Zr  0.22329418  0.40933097  0.95171513     2.84220
O131        O  0.26378325  0.41075510  0.00548225    -1.09730
O132        O  0.18719147  0.46581031  0.95535486    -1.09230
C133        C  0.12134459  0.40194217  0.93658876     1.05420
C134        C  0.32210704  0.39409909  0.93424518     1.08040
C135        C  0.13208931  0.53540533  0.93912525     1.05600
C136        C  0.13011550  0.39248883  0.07618886     1.05960
C137        C  0.32413546  0.38801827  0.06965678     1.05540
C138        C  0.32534613  0.53270182  0.93743771     1.05090
C139        C  0.21222544  0.46576609  0.87120159     1.05520
C140        C  0.24042761  0.32777962  0.00631467     1.05030
H141        H  0.28100543  0.46307655  0.92859443     0.31710
O142        O  0.26552706  0.46301277  0.95186870    -1.30830
H143        H  0.16888436  0.38687950  0.00733988     0.31730
O144        O  0.18517345  0.40947174  0.00766443    -1.32220
C145        C  0.15297279  0.46034532  0.71593848     0.01960
C146        C  0.13988486  0.42499067  0.70029750    -0.14190
C147        C  0.12119748  0.42400086  0.66467104    -0.00540
C148        C  0.11803665  0.45736723  0.64340539    -0.12710
C149        C  0.13096077  0.49249507  0.65784048     0.01950
C150        C  0.14808030  0.49414982  0.69440322    -0.12130
H151        H  0.14301302  0.39852454  0.71605128     0.07550
H152        H  0.10321131  0.45614795  0.61593978     0.05080
H153        H  0.15633040  0.52179019  0.70637116     0.04930
C154        C  0.17844440  0.45068204  0.30823451     0.01960
C155        C  0.17357887  0.41489990  0.32666862    -0.14190
C156        C  0.15725467  0.41316033  0.36384488    -0.00540
C157        C  0.14705140  0.44734608  0.38271797    -0.12710
C158        C  0.14836111  0.48245019  0.36387616     0.01950
C159        C  0.16544497  0.48438718  0.32723839    -0.12130
H160        H  0.18131369  0.38841467  0.31184578     0.07550
H161        H  0.13346621  0.44630104  0.41089493     0.05080
H162        H  0.16549103  0.51151847  0.31228250     0.04930
C163        C  0.32303745  0.18344230  0.01413980     0.01960
C164        C  0.33988914  0.17112275  0.04898074    -0.14190
C165        C  0.36273457  0.13753735  0.04940953    -0.00540
C166        C  0.36773484  0.11618179  0.01557722    -0.12710
C167        C  0.35019019  0.12704197  0.98135488     0.01950
C168        C  0.32818062  0.16087794  0.98056349    -0.12130
H169        H  0.33619090  0.18788539  0.07518776     0.07550
H170        H  0.38546084  0.09036540  0.01604897     0.05080
H171        H  0.31440729  0.16916643  0.95394442     0.04930
C172        C  0.30724797  0.75768049  0.01260728     0.01960
C173        C  0.32417680  0.77309357  0.04657261    -0.14190
C174        C  0.34275407  0.80911152  0.04606404    -0.00540
C175        C  0.34286304  0.83034110  0.01239477    -0.12710
C176        C  0.32778782  0.81565382  0.97820005     0.01950
C177        C  0.30966737  0.77939291  0.97835559    -0.12130
H178        H  0.32478204  0.75647567  0.07269094     0.07550
H179        H  0.35759991  0.85786044  0.01233559     0.05080
H180        H  0.29775922  0.76825561  0.95172733     0.04930
O181        O  0.06245512  0.14050948  0.42794306    -0.87660
O182        O  0.90334458  0.15044166  0.58190631    -0.87820
O183        O  0.02621485  0.10013597  0.55486344    -0.89490
O184        O  0.94109041  0.09808520  0.46028918    -0.88250
O185        O  0.91113046  0.14364247  0.42330514    -0.87840
O186        O  0.05783032  0.14786485  0.58868538    -0.89210
O187        O  0.93621596  0.10144822  0.55077073    -0.87690
O188        O  0.03140423  0.09623110  0.46566017    -0.87270
Zr189      Zr  0.98375740  0.12969020  0.50707576     2.84310
O190        O  0.92863380  0.16926967  0.50441711    -1.09250
O191        O  0.03953246  0.16766615  0.50708163    -1.09980
C192        C  0.05582783  0.10590794  0.43890721     1.05450
C193        C  0.91043658  0.11462570  0.57480603     1.05400
C194        C  0.05002623  0.11243042  0.58100335     1.08380
C195        C  0.91862575  0.10862144  0.43245518     1.06160
H196        H  0.98112205  0.15577060  0.58570956     0.31720
O197        O  0.98250012  0.17010942  0.56212518    -1.30200
H198        H  0.98612598  0.14938619  0.42787083     0.31390
O199        O  0.98544297  0.16586944  0.45038944    -1.31880
O200        O  0.91091986  0.27434298  0.58102745    -0.87650
O201        O  0.07074508  0.26183230  0.42760193    -0.89150
O202        O  0.01212175  0.22957784  0.62529304    -0.87730
O203        O  0.86168454  0.20166916  0.47036246    -0.87780
O204        O  0.95362054  0.21096035  0.38223132    -0.87490
O205        O  0.10610004  0.19931443  0.54043903    -0.87290
O206        O  0.02911748  0.31491982  0.54930284    -0.87660
O207        O  0.94325409  0.31394235  0.45355431    -0.87130
O208        O  0.06432307  0.26908863  0.58127715    -0.88190
O209        O  0.90644130  0.26659792  0.42501127    -0.87350
O210        O  0.94559531  0.22495865  0.62417046    -0.87750
O211        O  0.10871594  0.19704848  0.47444103    -0.87470
O212        O  0.02048191  0.21098426  0.38366745    -0.87120
O213        O  0.86194288  0.20839474  0.53602557    -0.87530
O214        O  0.94959441  0.31799452  0.54947412    -0.87820
O215        O  0.03920863  0.31159240  0.45879553    -0.89160
Zr216      Zr  0.92841723  0.21086395  0.55753451     2.83100
Zr217      Zr  0.04192004  0.20326844  0.45047974     2.83500
Zr218      Zr  0.03850519  0.20834656  0.56115016     2.84090
Zr219      Zr  0.93017376  0.20587667  0.44854573     2.83360
Zr220      Zr  0.98780892  0.28465653  0.50025902     2.84220
O221        O  0.98713026  0.24294623  0.44753852    -1.09730
O222        O  0.98453081  0.24731901  0.55511182    -1.09230
C223        C  0.92524145  0.30808956  0.57598005     1.05420
C224        C  0.06529874  0.29764764  0.43534552     1.08040
C225        C  0.97777977  0.23433312  0.64090051     1.05600
C226        C  0.84461748  0.20270428  0.50374114     1.05960
C227        C  0.98746727  0.21400907  0.36600204     1.05540
C228        C  0.12456414  0.19532902  0.50809641     1.05090
C229        C  0.05399531  0.30391700  0.57488335     1.05520
C230        C  0.91637466  0.30194823  0.43016404     1.05030
H231        H  0.06622494  0.25914900  0.50467616     0.31710
O232        O  0.04248411  0.24430881  0.50430959    -1.30830
H233        H  0.90725171  0.26465258  0.50130277     0.31730
O234        O  0.92987491  0.24809559  0.50166185    -1.32220
C235        C  0.68334372  0.15225650  0.51456824     0.01960
C236        C  0.66252321  0.14559782  0.48012001    -0.14190
C237        C  0.62681841  0.12603461  0.48023359    -0.00540
C238        C  0.61187799  0.11266101  0.51486417    -0.12710
C239        C  0.63227072  0.11700298  0.54905939     0.01950
C240        C  0.66700182  0.13830619  0.54943425    -0.12130
H241        H  0.67457674  0.15371921  0.45267421     0.07550
H242        H  0.58539749  0.09573118  0.51495512     0.05080
H243        H  0.68152242  0.14221146  0.57666480     0.04930
C244        C  0.28829681  0.15091551  0.51388959     0.01960
C245        C  0.30751201  0.13946716  0.47948910    -0.14190
C246        C  0.34550347  0.12439616  0.48046060    -0.00540
C247        C  0.36511132  0.12285835  0.51545871    -0.12710
C248        C  0.34583112  0.13034959  0.55010545     0.01950
C249        C  0.30785848  0.14562725  0.54926506    -0.12130
H250        H  0.29206874  0.13942830  0.45242014     0.07550
H251        H  0.39419826  0.11067006  0.51589164     0.05080
H252        H  0.29350618  0.15222957  0.57631531     0.04930
C253        C  0.98369822  0.27368263  0.21000836     0.01960
C254        C  0.01789239  0.28257632  0.18870093    -0.14190
C255        C  0.01508223  0.30129793  0.15323639    -0.00540
C256        C  0.97873752  0.30671567  0.13687914    -0.12710
C257        C  0.94531768  0.30353493  0.15906123     0.01950
C258        C  0.94729452  0.28631967  0.19539537    -0.12130
H259        H  0.04656296  0.27691088  0.20007159     0.07550
H260        H  0.97683256  0.32054661  0.10908230     0.05080
H261        H  0.92110976  0.28479818  0.21279472     0.04930
C262        C  0.95731619  0.32694499  0.78361509     0.01960
C263        C  0.98943000  0.33331540  0.80829453    -0.14190
C264        C  0.98529332  0.35309738  0.84360605    -0.00540
C265        C  0.94734830  0.36547612  0.85431691    -0.12710
C266        C  0.91593143  0.36787244  0.82749679     0.01950
C267        C  0.92089260  0.34468448  0.79364273    -0.12130
H268        H  0.01777180  0.32216886  0.80038986     0.07550
H269        H  0.94317347  0.37281079  0.88418754     0.05080
H270        H  0.89657852  0.34127275  0.77430543     0.04930
O271        O  0.03372451  0.80962996  0.45501415    -0.87660
O272        O  0.03038433  0.59339505  0.45799739    -0.87820
O273        O  0.10788230  0.71284272  0.46673741    -0.89490
O274        O  0.01797936  0.69545460  0.38005349    -0.88250
O275        O  0.95117921  0.69795700  0.38071034    -0.87840
O276        O  0.10926483  0.71201206  0.53262351    -0.89210
O277        O  0.06693654  0.63899831  0.42714336    -0.87690
O278        O  0.06250730  0.76100312  0.41938033    -0.87270
Zr279      Zr  0.04091653  0.70104882  0.44599958     2.84310
O280        O  0.98537690  0.66216471  0.44723303    -1.09250
O281        O  0.04132098  0.74216380  0.49936293    -1.09980
C282        C  0.05707683  0.79653485  0.42848833     1.05450
C283        C  0.05778099  0.60397037  0.43462095     1.05400
C284        C  0.12546249  0.71658584  0.49937574     1.08380
C285        C  0.98444645  0.69517742  0.36335880     1.06160
H286        H  0.06530271  0.64822047  0.50133522     0.31720
O287        O  0.04186340  0.66361969  0.50121285    -1.30200
H288        H  0.98597030  0.75552351  0.42254785     0.31390
O289        O  0.98595834  0.74067832  0.44583266    -1.31880
O290        O  0.95059883  0.59810243  0.55863776    -0.87650
O291        O  0.93585832  0.81256701  0.53996519    -0.89150
O292        O  0.06571658  0.64463772  0.57760838    -0.87730
O293        O  0.90416035  0.64081651  0.42861584    -0.87780
O294        O  0.90970579  0.76200698  0.42030604    -0.87490
O295        O  0.06490942  0.76629388  0.57772267    -0.87290
O296        O  0.95382453  0.70377266  0.62337811    -0.87660
O297        O  0.86340252  0.71066498  0.53666579    -0.87130
O298        O  0.02049859  0.70042379  0.62094663    -0.88190
O299        O  0.86437555  0.71404427  0.47084173    -0.87350
O300        O  0.03334144  0.59603832  0.54576758    -0.87750
O301        O  0.03019980  0.81304104  0.54647153    -0.87470
O302        O  0.94114452  0.81010099  0.45363432    -0.87120
O303        O  0.93464149  0.59384383  0.46356526    -0.87530
O304        O  0.91389217  0.64562108  0.58782525    -0.87820
O305        O  0.90718833  0.76733389  0.57845417    -0.89160
Zr306      Zr  0.98532084  0.62515467  0.50308854     2.83100
Zr307      Zr  0.98631648  0.78167012  0.49994885     2.83500
Zr308      Zr  0.04194040  0.70516868  0.55449048     2.84090
Zr309      Zr  0.93050419  0.70202272  0.44785572     2.83360
Zr310      Zr  0.93119519  0.70546892  0.55714689     2.84220
O311        O  0.93149158  0.74235442  0.50164468    -1.09730
O312        O  0.98655298  0.66698249  0.55572664    -1.09230
C313        C  0.92739227  0.61111358  0.58531076     1.05420
C314        C  0.91127754  0.80182169  0.56614147     1.08040
C315        C  0.05841414  0.60908107  0.57034179     1.05600
C316        C  0.90940267  0.60573887  0.43862866     1.05960
C317        C  0.91706620  0.79756161  0.42775762     1.05540
C318        C  0.05599981  0.80142258  0.57092125     1.05090
C319        C  0.98757502  0.69958415  0.63904335     1.05520
C320        C  0.84702182  0.71651914  0.50383833     1.05030
H321        H  0.98656499  0.76104584  0.57890760     0.31710
O322        O  0.98656477  0.74478479  0.55620927    -1.30830
H323        H  0.90555946  0.64896265  0.50498602     0.31730
O324        O  0.92904157  0.66413692  0.50353026    -1.32220
C325        C  0.69403041  0.78745750  0.51162296     0.01960
C326        C  0.67320683  0.79807997  0.47829759    -0.14190
C327        C  0.63923251  0.82071555  0.48111856    -0.00540
C328        C  0.62581843  0.83190119  0.51753653    -0.12710
C329        C  0.64503682  0.82077970  0.55070042     0.01950
C330        C  0.67934013  0.79903059  0.54802790    -0.12130
H331        H  0.68320926  0.78866436  0.45016779     0.07550
H332        H  0.60057244  0.85050662  0.52048119     0.05080
H333        H  0.69479678  0.79218275  0.57413645     0.04930
C334        C  0.27942878  0.78621725  0.50483764     0.01960
C335        C  0.29766275  0.80068621  0.47131247    -0.14190
C336        C  0.33187776  0.82247869  0.47400067    -0.00540
C337        C  0.34973357  0.82719060  0.50951819    -0.12710
C338        C  0.33309198  0.81311740  0.54311303     0.01950
C339        C  0.29740893  0.79327627  0.54095203    -0.12130
H340        H  0.28505557  0.79604796  0.44320580     0.07550
H341        H  0.37640976  0.84376288  0.51116932     0.05080
H342        H  0.28362122  0.78415342  0.56735224     0.04930
C343        C  0.98072171  0.66567705  0.19913765     0.01960
C344        C  0.01494405  0.65545705  0.17872337    -0.14190
C345        C  0.01260980  0.63882672  0.14204870    -0.00540
C346        C  0.97683484  0.63722062  0.12347127    -0.12710
C347        C  0.94226467  0.64567796  0.14317563     0.01950
C348        C  0.94427992  0.66037857  0.18101301    -0.12130
H349        H  0.04318005  0.65729726  0.19231181     0.07550
H350        H  0.97572476  0.62363240  0.09527928     0.05080
H351        H  0.91751766  0.66497723  0.19704624     0.04930
C352        C  0.98563495  0.63865647  0.79310494     0.01960
C353        C  0.02057001  0.62776186  0.81173464    -0.14190
C354        C  0.01914605  0.60408263  0.84386883    -0.00540
C355        C  0.98365856  0.59082212  0.85691240    -0.12710
C356        C  0.94912067  0.60681818  0.84424199     0.01950
C357        C  0.94956634  0.62918070  0.81084550    -0.12130
H358        H  0.04868363  0.63780420  0.80194146     0.07550
H359        H  0.98317579  0.57008893  0.88000019     0.05080
H360        H  0.92214886  0.63868489  0.79912839     0.04930
O361        O  0.67240705  0.54156969  0.07980952    -0.87660
O362        O  0.68626835  0.37737581  0.93122489    -0.87820
O363        O  0.62922533  0.50446402  0.96062280    -0.89490
O364        O  0.63208465  0.41586072  0.05092274    -0.88250
O365        O  0.68047196  0.38675789  0.08552212    -0.87840
O366        O  0.67518425  0.53233924  0.92187405    -0.89210
O367        O  0.63611922  0.40914820  0.96256333    -0.87690
O368        O  0.62711106  0.50555304  0.04702118    -0.87270
Zr369      Zr  0.66165972  0.45940584  0.00444316     2.84310
O370        O  0.70582736  0.40809873  0.00491102    -1.09250
O371        O  0.69849570  0.51479923  0.00295558    -1.09980
C372        C  0.63731505  0.53263061  0.07087952     1.05450
C373        C  0.64971433  0.38314558  0.93917281     1.05400
C374        C  0.63995664  0.52760491  0.93354864     1.08380
C375        C  0.64444674  0.39258898  0.07699301     1.06160
H376        H  0.68691406  0.45414818  0.92660752     0.31720
O377        O  0.70250724  0.45637700  0.94956910    -1.30200
H378        H  0.68227912  0.46358227  0.08377454     0.31390
O379        O  0.69851253  0.46359097  0.06099708    -1.31880
O380        O  0.82201613  0.39418110  0.94375592    -0.87650
O381        O  0.79308705  0.55204115  0.08126391    -0.89150
O382        O  0.74621261  0.48298746  0.88140393    -0.87730
O383        O  0.73255508  0.34518199  0.03916161    -0.87780
O384        O  0.74739454  0.43406487  0.12646422    -0.87490
O385        O  0.72363743  0.58011898  0.96780594    -0.87290
O386        O  0.84472372  0.51891099  0.96301684    -0.87660
O387        O  0.85084611  0.42540673  0.05568763    -0.87130
O388        O  0.79521746  0.54301887  0.92600388    -0.88190
O389        O  0.80275084  0.38784129  0.08221152    -0.87350
O390        O  0.74167573  0.41770140  0.88363543    -0.87750
O391        O  0.72602325  0.58418679  0.03380804    -0.87470
O392        O  0.74286923  0.49980982  0.12719960    -0.87120
O393        O  0.74376965  0.33976480  0.97425331    -0.87530
O394        O  0.86381274  0.44155240  0.96211693    -0.87820
O395        O  0.84486490  0.52239188  0.05103819    -0.89160
Zr396      Zr  0.74861664  0.40568159  0.95212233     2.83100
Zr397      Zr  0.73544751  0.51981247  0.05929699     2.83500
Zr398      Zr  0.73707938  0.51317372  0.94742062     2.84090
Zr399      Zr  0.74158045  0.41152260  0.06075163     2.83360
Zr400      Zr  0.82031173  0.47053666  0.00903115     2.84220
O401        O  0.77849836  0.46826029  0.06222108    -1.09730
O402        O  0.78281795  0.46360561  0.95214534    -1.09230
C403        C  0.85277628  0.41586088  0.93790862     1.05420
C404        C  0.82953517  0.54809260  0.07377066     1.08040
C405        C  0.75076524  0.44862644  0.86597703     1.05600
C406        C  0.73373387  0.32599843  0.00713024     1.05960
C407        C  0.74841802  0.46698698  0.14374012     1.05540
C408        C  0.72098918  0.59888039  0.00020352     1.05090
C409        C  0.83097159  0.54062504  0.93603635     1.05520
C410        C  0.83842949  0.39770990  0.07755356     1.05030
H411        H  0.78795551  0.54510136  0.00338314     0.31710
O412        O  0.77479760  0.52062811  0.00406494    -1.30830
H413        H  0.80236711  0.38966204  0.01015097     0.31730
O414        O  0.78519555  0.41157513  0.00852356    -1.32220
C415        C  0.90422258  0.45438764  0.75397010     0.01960
C416        C  0.90617919  0.42206559  0.72953971    -0.14190
C417        C  0.90651977  0.42578715  0.68967726    -0.00540
C418        C  0.90596758  0.46204416  0.67366268    -0.12710
C419        C  0.90418011  0.49508453  0.69678458     0.01950
C420        C  0.90337626  0.49144003  0.73738832    -0.12130
H421        H  0.90485120  0.39375586  0.74118959     0.07550
H422        H  0.90728028  0.46453831  0.64259308     0.05080
H423        H  0.90019532  0.51675365  0.75555525     0.04930
C424        C  0.79751977  0.45717228  0.30370833     0.01960
C425        C  0.81159510  0.42194727  0.31855302    -0.14190
C426        C  0.82989473  0.42097568  0.35459416    -0.00540
C427        C  0.83143788  0.45432433  0.37700223    -0.12710
C428        C  0.81948527  0.48970637  0.36274539     0.01950
C429        C  0.80184581  0.49095815  0.32626403    -0.12130
H430        H  0.81020826  0.39575596  0.30153893     0.07550
H431        H  0.84635271  0.45313133  0.40436178     0.05080
H432        H  0.79383327  0.51853126  0.31454143     0.04930
C433        C  0.66320798  0.17542165  0.00747282     0.01960
C434        C  0.65266631  0.15870592  0.04290517    -0.14190
C435        C  0.63177523  0.12417133  0.04335499    -0.00540
C436        C  0.62311278  0.10576616  0.00872252    -0.12710
C437        C  0.62991754  0.12336046  0.97366201     0.01950
C438        C  0.65127467  0.15773359  0.97267399    -0.12130
H439        H  0.65940833  0.17317819  0.06980951     0.07550
H440        H  0.60760528  0.07861263  0.00909929     0.05080
H441        H  0.65647753  0.17172854  0.94546007     0.04930
C442        C  0.66390889  0.75674028  0.00723097     0.01960
C443        C  0.65811637  0.77374898  0.04408207    -0.14190
C444        C  0.64294415  0.81110574  0.04775032    -0.00540
C445        C  0.63299931  0.83136173  0.01505648    -0.12710
C446        C  0.63406315  0.81392959  0.97876617     0.01950
C447        C  0.65114265  0.77724453  0.97455385    -0.12130
H448        H  0.66400610  0.75771420  0.06991208     0.07550
H449        H  0.62061669  0.85993134  0.01844977     0.05080
H450        H  0.65318911  0.76444806  0.94612169     0.04930
O451        O  0.39978880  0.04098134  0.82218660    -0.87660
O452        O  0.56005891  0.88911429  0.82574231    -0.87820
O453        O  0.42940664  0.92254645  0.87078940    -0.89490
O454        O  0.52313981  0.01160679  0.87090690    -0.88250
O455        O  0.56146377  0.03821510  0.82380697    -0.87840
O456        O  0.39754857  0.88932326  0.82283781    -0.89210
O457        O  0.52372029  0.91996981  0.87237365    -0.87690
O458        O  0.43211117  0.00917475  0.87010427    -0.87270
Zr459      Zr  0.47871117  0.96442316  0.84090330     2.84310
O460        O  0.53565679  0.96318421  0.80287733    -1.09250
O461        O  0.42353099  0.96410977  0.80110230    -1.09980
C462        C  0.40710160  0.03391756  0.85770278     1.05450
C463        C  0.55072921  0.89621216  0.86106509     1.05400
C464        C  0.40380915  0.89802819  0.85833129     1.08380
C465        C  0.55071941  0.03412491  0.85898805     1.06160
H466        H  0.47832908  0.88723439  0.81916375     0.31720
O467        O  0.47885435  0.90913326  0.80239486    -1.30200
H468        H  0.47986487  0.04055393  0.81738385     0.31390
O469        O  0.48011736  0.01789584  0.80113293    -1.31880
O470        O  0.55784632  0.88201189  0.70322106    -0.87650
O471        O  0.40701743  0.04374964  0.70023440    -0.89150
O472        O  0.44619827  0.84228080  0.76981406    -0.87730
O473        O  0.60383596  0.99397711  0.75481459    -0.87780
O474        O  0.51454048  0.08421002  0.76793965    -0.87490
O475        O  0.35721877  0.93034341  0.75521327    -0.87290
O476        O  0.43816276  0.91438493  0.65348242    -0.87660
O477        O  0.52950007  0.00572364  0.65442368    -0.87130
O478        O  0.40398003  0.88310027  0.70083795    -0.88190
O479        O  0.55793941  0.04217642  0.70206258    -0.87350
O480        O  0.51300695  0.84129518  0.76976287    -0.87750
O481        O  0.35815905  0.99619203  0.75309868    -0.87470
O482        O  0.44769518  0.08420705  0.76758052    -0.87120
O483        O  0.60207742  0.92806678  0.75587160    -0.87530
O484        O  0.53020837  0.91758716  0.65500280    -0.87820
O485        O  0.44076872  0.01070328  0.65296950    -0.89160
Zr486      Zr  0.53474816  0.90784063  0.76389015     2.83100
Zr487      Zr  0.42546940  0.01777668  0.76137205     2.83500
Zr488      Zr  0.42462402  0.90891221  0.76202925     2.84090
Zr489      Zr  0.53633557  0.01698685  0.76281315     2.83360
Zr490      Zr  0.48200762  0.96178840  0.68380731     2.84220
O491        O  0.48161923  0.01726787  0.72291250    -1.09730
O492        O  0.48056746  0.90715416  0.72324722    -1.09230
C493        C  0.55361792  0.89148410  0.66783352     1.05420
C494        C  0.41658772  0.03700403  0.66500435     1.08040
C495        C  0.47940179  0.82488715  0.77299725     1.05600
C496        C  0.61983289  0.96035866  0.75108382     1.05960
C497        C  0.48101503  0.10127694  0.77049216     1.05540
C498        C  0.34066067  0.96335280  0.75064144     1.05090
C499        C  0.41288581  0.88947576  0.66550364     1.05520
C500        C  0.55274770  0.03254822  0.66662194     1.05030
H501        H  0.40383586  0.96274855  0.70513099     0.31710
O502        O  0.42596549  0.96273582  0.72215272    -1.30830
H503        H  0.55841375  0.96126311  0.70790585     0.31730
O504        O  0.53570459  0.96169197  0.72433515    -1.32220
C505        C  0.48236151  0.66977167  0.83443031     0.01960
C506        C  0.44746635  0.64974827  0.84318241    -0.14190
C507        C  0.44878539  0.61441058  0.86207085    -0.00540
C508        C  0.48460695  0.59713070  0.86861701    -0.12710
C509        C  0.51918493  0.61717227  0.86372273     0.01950
C510        C  0.51839265  0.65331466  0.84596978    -0.12130
H511        H  0.41922823  0.66177845  0.83671395     0.07550
H512        H  0.48540851  0.56898512  0.88174251     0.05080
H513        H  0.54536974  0.66907150  0.84304782     0.04930
C514        C  0.48368985  0.25867875  0.82939832     0.01960
C515        C  0.44927422  0.27991945  0.83820127    -0.14190
C516        C  0.45105894  0.31447651  0.85950311    -0.00540
C517        C  0.48760154  0.32954743  0.86876944    -0.12710
C518        C  0.52176745  0.30844304  0.86266068     0.01950
C519        C  0.51988441  0.27330971  0.84252569    -0.12130
H520        H  0.42095511  0.26911868  0.83008237     0.07550
H521        H  0.48931109  0.35692460  0.88387434     0.05080
H522        H  0.54630298  0.25651969  0.83938839     0.04930
C523        C  0.18509162  0.95776001  0.68589234     0.01960
C524        C  0.16447008  0.99195494  0.67788513    -0.14190
C525        C  0.12939279  0.99086695  0.65741885    -0.00540
C526        C  0.11445067  0.95551517  0.64576460    -0.12710
C527        C  0.13307303  0.92109448  0.65447821     0.01950
C528        C  0.16890008  0.92214734  0.67401575    -0.12130
H529        H  0.17560755  0.01953644  0.68733595     0.07550
H530        H  0.08866795  0.95481265  0.62789041     0.05080
H531        H  0.18426910  0.89551398  0.67911891     0.04930
C532        C  0.76899276  0.95697128  0.67093050     0.01960
C533        C  0.78759407  0.99201728  0.66155607    -0.14190
C534        C  0.82177069  0.99209129  0.63913858    -0.00540
C535        C  0.83587393  0.95761377  0.62387710    -0.12710
C536        C  0.81785992  0.92278162  0.63161802     0.01950
C537        C  0.78532040  0.92220047  0.65625573    -0.12130
H538        H  0.77586938  0.01927398  0.67140704     0.07550
H539        H  0.86156992  0.95788055  0.60558248     0.05080
H540        H  0.77287714  0.89466510  0.66337992     0.04930
C541        C  0.44675132  0.76930418  0.80463203    -0.14510
C542        C  0.47885967  0.78378468  0.78430779     0.07640
C543        C  0.51167432  0.75998303  0.77912344    -0.14510
C544        C  0.51244368  0.72279607  0.79435346    -0.14510
C545        C  0.48086533  0.70875952  0.81619174     0.07640
C546        C  0.44796604  0.73278845  0.82090973    -0.14510
H547        H  0.42117298  0.78694422  0.80954312     0.11620
H548        H  0.53695054  0.77025087  0.76358698     0.11620
H549        H  0.53801075  0.70522846  0.78911629     0.11620
H550        H  0.42333441  0.72427993  0.83828810     0.11620
C551        C  0.51349023  0.16624238  0.77567564    -0.14510
C552        C  0.48040924  0.14303392  0.78045175     0.07640
C553        C  0.44747864  0.15912170  0.79871332    -0.14510
C554        C  0.44829526  0.19647233  0.81394626    -0.14510
C555        C  0.48170705  0.21967170  0.81026752     0.07640
C556        C  0.51390225  0.20420814  0.78979865    -0.14510
H557        H  0.53928385  0.15489008  0.76146950     0.11620
H558        H  0.42149066  0.14213615  0.80299293     0.11620
H559        H  0.42303583  0.20619377  0.83001806     0.11620
H560        H  0.53984814  0.22113629  0.78508623     0.11620
C561        C  0.27459357  0.93218235  0.74555814    -0.14510
C562        C  0.29934102  0.96344974  0.73829016     0.07640
C563        C  0.28582534  0.99310432  0.71476776    -0.14510
C564        C  0.24904357  0.99108708  0.69791888    -0.14510
C565        C  0.22410129  0.95980697  0.70487042     0.07640
C566        C  0.23723791  0.93057348  0.72937195    -0.14510
H567        H  0.28429901  0.90876227  0.76340284     0.11620
H568        H  0.30445289  0.01715352  0.70784457     0.11620
H569        H  0.24078744  0.01366027  0.67841314     0.11620
H570        H  0.21879008  0.90631531  0.73593533     0.11620
C571        C  0.68691036  0.98810025  0.74010999    -0.14510
C572        C  0.66016607  0.95797762  0.73563114     0.07640
C573        C  0.67022027  0.92684351  0.71143980    -0.14510
C574        C  0.70519784  0.92654363  0.69080637    -0.14510
C575        C  0.73221344  0.95674084  0.69470986     0.07640
C576        C  0.72281358  0.98712852  0.72052489    -0.14510
H577        H  0.67990880  0.01255239  0.75843586     0.11620
H578        H  0.64991365  0.90352143  0.70657816     0.11620
H579        H  0.70996374  0.90311624  0.67064676     0.11620
H580        H  0.74287151  0.01053396  0.72553078     0.11620
C581        C  0.62808526  0.83573075  0.91001568    -0.14510
C582        C  0.61264985  0.83307265  0.94728835     0.07640
C583        C  0.57634180  0.85042010  0.95547986    -0.14510
C584        C  0.55669658  0.87132274  0.92773147    -0.14510
C585        C  0.57233479  0.87475731  0.89067043     0.07640
C586        C  0.60803422  0.85635028  0.88188573    -0.14510
H587        H  0.65592174  0.82268211  0.90292349     0.11620
H588        H  0.56302375  0.84791582  0.98365134     0.11620
H589        H  0.52895192  0.88436858  0.93522792     0.11620
H590        H  0.62074513  0.85831583  0.85340787     0.11620
C591        C  0.62993765  0.09157632  0.90865295    -0.14510
C592        C  0.60941621  0.10680427  0.94020596     0.07640
C593        C  0.56921469  0.09946243  0.94380040    -0.14510
C594        C  0.55036662  0.07515561  0.91788064    -0.14510
C595        C  0.57110733  0.05853906  0.88721124     0.07640
C596        C  0.61075857  0.06783429  0.88205484    -0.14510
H597        H  0.66096167  0.09645430  0.90568048     0.11620
H598        H  0.55283277  0.11105351  0.96803025     0.11620
H599        H  0.51958849  0.06939591  0.92176014     0.11620
H600        H  0.62715999  0.05574278  0.85810500     0.11620
C601        C  0.91257405  0.43315110  0.88014896    -0.14510
C602        C  0.86869803  0.41738107  0.89772024     0.07640
C603        C  0.83072599  0.41480706  0.86951761    -0.14510
C604        C  0.84404716  0.43506217  0.80030602    -0.14510
C605        C  0.89203922  0.44745699  0.79426050     0.07640
C606        C  0.92378338  0.44585506  0.83276315    -0.14510
H607        H  0.93491203  0.43812971  0.90136616     0.11620
H608        H  0.80551023  0.40133206  0.88207391     0.11620
H609        H  0.82506456  0.43584860  0.77519584     0.11620
H610        H  0.95358385  0.45420564  0.82710406     0.11620
C611        C  0.75451349  0.48658326  0.25208782    -0.14510
C612        C  0.78320131  0.45964511  0.26306047     0.07640
C613        C  0.79991338  0.43617512  0.23420568    -0.14510
C614        C  0.78810635  0.43896413  0.19599980    -0.14510
C615        C  0.75967412  0.46577013  0.18496926     0.07640
C616        C  0.74313651  0.48987710  0.21334677    -0.14510
H617        H  0.74075985  0.50506368  0.27343631     0.11620
H618        H  0.82298282  0.41609556  0.24079191     0.11620
H619        H  0.80197618  0.42043715  0.17469611     0.11620
H620        H  0.72108255  0.51069816  0.20570424     0.11620
C621        C  0.59328278  0.32652981  0.86348241    -0.14510
C622        C  0.55754601  0.32158263  0.88273552     0.07640
C623        C  0.55453159  0.33271387  0.92160989    -0.14510
C624        C  0.58524393  0.35110817  0.94004535    -0.14510
C625        C  0.62015679  0.35847954  0.92034452     0.07640
C626        C  0.62454010  0.34482853  0.88226910    -0.14510
H627        H  0.59633031  0.31805769  0.83355255     0.11620
H628        H  0.52763590  0.32843068  0.93744244     0.11620
H629        H  0.58125231  0.36055815  0.96961198     0.11620
H630        H  0.65124855  0.35010209  0.86648764     0.11620
C631        C  0.68420980  0.27977972  0.02926531    -0.14510
C632        C  0.71828976  0.28644306  0.00795523     0.07640
C633        C  0.73403028  0.25643435  0.98538200    -0.14510
C634        C  0.71626948  0.22007297  0.98510728    -0.14510
C635        C  0.68252270  0.21345885  0.00723343     0.07640
C636        C  0.66663367  0.24375409  0.02915320    -0.14510
H637        H  0.67034634  0.30307225  0.04488167     0.11620
H638        H  0.75983803  0.26114125  0.96802948     0.11620
H639        H  0.72887714  0.19710305  0.96780775     0.11620
H640        H  0.64007165  0.23975588  0.04559558     0.11620
C641        C  0.61533288  0.56622503  0.87792525    -0.14510
C642        C  0.61019133  0.55217294  0.91552563     0.07640
C643        C  0.57782590  0.56439448  0.93707779    -0.14510
C644        C  0.55035275  0.58879692  0.92095613    -0.14510
C645        C  0.55392627  0.60071687  0.88251614     0.07640
C646        C  0.58714720  0.59007688  0.86136516    -0.14510
H647        H  0.64054873  0.55779727  0.86094761     0.11620
H648        H  0.57377716  0.55516076  0.96647709     0.11620
H649        H  0.52500850  0.59689213  0.93794714     0.11620
H650        H  0.59030533  0.59857802  0.83165069     0.11620
C651        C  0.72183610  0.66555084  0.02868265    -0.14510
C652        C  0.70972744  0.64019009  0.99937152     0.07640
C653        C  0.68381114  0.65384866  0.97148811    -0.14510
C654        C  0.66924978  0.69155484  0.97368069    -0.14510
C655        C  0.68078226  0.71693080  0.00345217     0.07640
C656        C  0.70797544  0.70344116  0.03042734    -0.14510
H657        H  0.74189559  0.65594986  0.05054297     0.11620
H658        H  0.67337204  0.63481007  0.94894352     0.11620
H659        H  0.64786675  0.70017060  0.95271204     0.11620
H660        H  0.71847995  0.72207586  0.05322521     0.11620
C661        C  0.91900098  0.59742732  0.90850250    -0.14510
C662        C  0.91434762  0.59972953  0.86822701     0.07640
C663        C  0.87876289  0.58927716  0.85194067    -0.14510
C664        C  0.85014275  0.57281028  0.87506151    -0.14510
C665        C  0.85791296  0.56441412  0.91389957     0.07640
C666        C  0.89173630  0.57849011  0.93088150    -0.14510
H667        H  0.94543772  0.60741972  0.92223762     0.11620
H668        H  0.87396206  0.59159503  0.82129986     0.11620
H669        H  0.82287401  0.56481242  0.86193249     0.11620
H670        H  0.89742985  0.57418712  0.96115408     0.11620
C671        C  0.88308388  0.60469190  0.14966941    -0.14510
C672        C  0.90603636  0.62911495  0.12697911     0.07640
C673        C  0.90026976  0.62923209  0.08688177    -0.14510
C674        C  0.87565627  0.60241175  0.06952847    -0.14510
C675        C  0.85520200  0.57620869  0.09210941     0.07640
C676        C  0.85745743  0.57869653  0.13230091    -0.14510
H677        H  0.88708953  0.60351454  0.18050128     0.11620
H678        H  0.91713863  0.64812594  0.06872672     0.11620
H679        H  0.87299119  0.60171502  0.03848470     0.11620
H680        H  0.84087363  0.55920618  0.15008163     0.11620
C681        C  0.39336345  0.82314845  0.58167788    -0.14510
C682        C  0.35233180  0.82405055  0.57973258     0.07640
C683        C  0.33137351  0.84345181  0.60880845    -0.14510
C684        C  0.35123272  0.86397215  0.63750332    -0.14510
C685        C  0.39215642  0.86603504  0.63686371     0.07640
C686        C  0.41309488  0.84462381  0.60948259    -0.14510
H687        H  0.41023728  0.80795167  0.55988788     0.11620
H688        H  0.29986870  0.84498020  0.60783371     0.11620
H689        H  0.33466492  0.87987902  0.65902288     0.11620
H690        H  0.44466994  0.84495045  0.60931769     0.11620
C691        C  0.59543070  0.81527565  0.60204349    -0.14510
C692        C  0.62830805  0.83416100  0.58736280     0.07640
C693        C  0.63742246  0.87121091  0.60072793    -0.14510
C694        C  0.61283582  0.88990849  0.62705573    -0.14510
C695        C  0.57907903  0.87163196  0.64031440     0.07640
C696        C  0.57111506  0.83380262  0.62877228    -0.14510
H697        H  0.58737264  0.78716326  0.59104546     0.11620
H698        H  0.66203241  0.88655953  0.58881072     0.11620
H699        H  0.61959432  0.91893805  0.63639323     0.11620
H700        H  0.54539467  0.81924608  0.63934158     0.11620
C701        C  0.87762528  0.57957902  0.37998345    -0.14510
C702        C  0.88366399  0.57773133  0.41983036     0.07640
C703        C  0.86271821  0.55113045  0.44151892    -0.14510
C704        C  0.83755291  0.52533868  0.42324471    -0.14510
C705        C  0.83427804  0.52462333  0.38278709     0.07640
C706        C  0.85350165  0.55300211  0.36153380    -0.14510
H707        H  0.89296438  0.60060596  0.36289601     0.11620
H708        H  0.86587359  0.55030192  0.47248497     0.11620
H709        H  0.82242298  0.50436910  0.44055156     0.11620
H710        H  0.85214699  0.55309572  0.33043483     0.11620
C711        C  0.95531238  0.70672183  0.29836353    -0.14510
C712        C  0.98434006  0.69007100  0.32117380     0.07640
C713        C  0.01285986  0.66689295  0.30357398    -0.14510
C714        C  0.01178819  0.65939726  0.26415907    -0.14510
C715        C  0.98280410  0.67585013  0.24091896     0.07640
C716        C  0.95482239  0.70005826  0.25853414    -0.14510
H717        H  0.93310850  0.72493957  0.31132928     0.11620
H718        H  0.03519698  0.65321203  0.32059853     0.11620
H719        H  0.03303337  0.63944201  0.25239985     0.11620
H720        H  0.93235135  0.71361183  0.24164248     0.11620
C721        C  0.87108994  0.86073781  0.55949276    -0.14510
C722        C  0.88464733  0.83092526  0.58259512     0.07640
C723        C  0.87113024  0.82828872  0.62077454    -0.14510
C724        C  0.84668525  0.85677580  0.63640465    -0.14510
C725        C  0.83504546  0.88782636  0.61380502     0.07640
C726        C  0.84614301  0.88860919  0.57480291    -0.14510
H727        H  0.88002033  0.86265384  0.52964621     0.11620
H728        H  0.88072712  0.80506343  0.63893183     0.11620
H729        H  0.83873782  0.85571443  0.66655702     0.11620
H730        H  0.83703448  0.91204120  0.55664788     0.11620
C731        C  0.78095967  0.72321976  0.53517328    -0.14510
C732        C  0.80604552  0.73012983  0.50397944     0.07640
C733        C  0.79323260  0.75430221  0.47449254    -0.14510
C734        C  0.75688532  0.77232056  0.47678364    -0.14510
C735        C  0.73182113  0.76609344  0.50826263     0.07640
C736        C  0.74409511  0.74063016  0.53707173    -0.14510
H737        H  0.79006516  0.70479872  0.55837111     0.11620
H738        H  0.81217524  0.76095775  0.45046196     0.11620
H739        H  0.74923584  0.79235186  0.45446984     0.11620
H740        H  0.72544058  0.73440989  0.56138830     0.11620
C741        C  0.11734281  0.83109279  0.59507558    -0.14510
C742        C  0.07640224  0.83014819  0.59424803     0.07640
C743        C  0.05496209  0.85492742  0.61811663    -0.14510
C744        C  0.07410503  0.88175613  0.64116021    -0.14510
C745        C  0.11498405  0.88536599  0.63952953     0.07640
C746        C  0.13659909  0.85893908  0.61726443    -0.14510
H747        H  0.13425796  0.81130642  0.57738472     0.11620
H748        H  0.02342092  0.85355145  0.61883737     0.11620
H749        H  0.05678214  0.90135538  0.65866731     0.11620
H750        H  0.16801191  0.86121682  0.61528293     0.11620
C751        C  0.19253778  0.72135861  0.52830671    -0.14510
C752        C  0.16641994  0.73021123  0.49869710     0.07640
C753        C  0.17817138  0.75630339  0.47045158    -0.14510
C754        C  0.21452378  0.77425006  0.47246279    -0.14510
C755        C  0.24092975  0.76579663  0.50218191     0.07640
C756        C  0.22954163  0.73844963  0.52969708    -0.14510
H757        H  0.18419756  0.70145159  0.55058528     0.11620
H758        H  0.15835925  0.76445901  0.44778285     0.11620
H759        H  0.22105028  0.79584076  0.45128896     0.11620
H760        H  0.24901516  0.73032805  0.55259016     0.11620
C761        C  0.88393656  0.56304215  0.61646505    -0.14510
C762        C  0.91769509  0.58541118  0.61721046     0.07640
C763        C  0.94282557  0.58321554  0.64894361    -0.14510
C764        C  0.93588617  0.55665599  0.67820226    -0.14510
C765        C  0.90365546  0.53204647  0.67604077     0.07640
C766        C  0.87686669  0.53670050  0.64575920    -0.14510
H767        H  0.86398930  0.56480839  0.59250245     0.11620
H768        H  0.96876806  0.60088338  0.65016309     0.11620
H769        H  0.95729390  0.55319455  0.70069457     0.11620
H770        H  0.85205126  0.51766214  0.64320839     0.11620
C771        C  0.95637163  0.69591997  0.70454567    -0.14510
C772        C  0.98873270  0.68992020  0.68032847     0.07640
C773        C  0.02095908  0.66983797  0.69452037    -0.14510
C774        C  0.01990220  0.65367187  0.73091527    -0.14510
C775        C  0.98726512  0.65867020  0.75523705     0.07640
C776        C  0.95591661  0.68107242  0.74182640    -0.14510
H777        H  0.93113567  0.71151069  0.69445082     0.11620
H778        H  0.04637523  0.66470104  0.67664990     0.11620
H779        H  0.04433300  0.63590440  0.73898945     0.11620
H780        H  0.93063702  0.68683475  0.75964330     0.11620
C781        C  0.86069828  0.46648074  0.85166502    -0.14510
C782        C  0.87770566  0.39374068  0.83303279     0.07640
C783        C  0.83407033  0.37123176  0.81791187    -0.14510
C784        C  0.78951780  0.39592681  0.81781797    -0.14510
C785        C  0.78020319  0.44328346  0.83313746     0.07640
C786        C  0.81349671  0.47664174  0.84555725    -0.14510
H787        H  0.87896776  0.49059118  0.86094886     0.11620
H788        H  0.83464376  0.34136885  0.80900728     0.11620
H789        H  0.76416115  0.37839672  0.81216161     0.11620
H790        H  0.80413916  0.50520832  0.85331281     0.11620
C791        C  0.91687554  0.36726750  0.14648672    -0.14510
C792        C  0.91231030  0.32700088  0.14608549     0.07640
C793        C  0.88355105  0.31046724  0.12295893    -0.14510
C794        C  0.86018396  0.33379632  0.10010493    -0.14510
C795        C  0.86593305  0.37389390  0.09920009     0.07640
C796        C  0.89410854  0.39053938  0.12295450    -0.14510
H797        H  0.93986876  0.38040129  0.16331275     0.11620
H798        H  0.88057399  0.27952572  0.12108495     0.11620
H799        H  0.83804070  0.32043890  0.08235329     0.11620
H800        H  0.89826322  0.42138105  0.12351517     0.11620
C801        C  0.33998950  0.08815296  0.60738737    -0.14510
C802        C  0.36272353  0.11324623  0.58525073     0.07640
C803        C  0.40330351  0.11428594  0.59127835    -0.14510
C804        C  0.42101118  0.08869277  0.61651918    -0.14510
C805        C  0.39836303  0.06233077  0.63685629     0.07640
C806        C  0.35767899  0.06315456  0.63324541    -0.14510
H807        H  0.30883567  0.08612891  0.60298657     0.11620
H808        H  0.42154150  0.13351151  0.57483912     0.11620
H809        H  0.45234764  0.08938585  0.62012429     0.11620
H810        H  0.33973822  0.04355876  0.64955077     0.11620
C811        C  0.60767831  0.11276030  0.61711343    -0.14510
C812        C  0.61814626  0.09475362  0.58232908     0.07640
C813        C  0.60940180  0.05557884  0.57674170    -0.14510
C814        C  0.58810960  0.03545530  0.60407461    -0.14510
C815        C  0.57590582  0.05380159  0.63807091     0.07640
C816        C  0.58688123  0.09229643  0.64496881    -0.14510
H817        H  0.61385730  0.14293589  0.62188629     0.11620
H818        H  0.61760481  0.04097981  0.55020933     0.11620
H819        H  0.58097259  0.00560433  0.59851046     0.11620
H820        H  0.57810908  0.10695952  0.67127326     0.11620
C821        C  0.85751163  0.32309649  0.39285542    -0.14510
C822        C  0.89507315  0.33080582  0.40741615     0.07640
C823        C  0.91216219  0.36646106  0.40006997    -0.14510
C824        C  0.89166492  0.39439009  0.38015153    -0.14510
C825        C  0.85318814  0.38779346  0.36786170     0.07640
C826        C  0.83659524  0.35151867  0.37336265    -0.14510
H827        H  0.84371442  0.29563487  0.39784464     0.11620
H828        H  0.94127737  0.37296481  0.41008111     0.11620
H829        H  0.90534645  0.42202660  0.37569855     0.11620
H830        H  0.80699715  0.34583880  0.36429676     0.11620
C831        C  0.95580664  0.21852270  0.30077541    -0.14510
C832        C  0.98837022  0.22443759  0.32451289     0.07640
C833        C  0.02034532  0.24456275  0.30945298    -0.14510
C834        C  0.01908186  0.26009101  0.27248373    -0.14510
C835        C  0.98610663  0.25518878  0.24886805     0.07640
C836        C  0.95488348  0.23326895  0.26336572    -0.14510
H837        H  0.93069864  0.20300725  0.31136583     0.11620
H838        H  0.04572514  0.25008014  0.32702316     0.11620
H839        H  0.04354225  0.27729859  0.26336460     0.11620
H840        H  0.92934264  0.22785613  0.24601815     0.11620
C841        C  0.11083376  0.08487058  0.60777270    -0.14510
C842        C  0.07014099  0.08376135  0.60409461     0.07640
C843        C  0.04886334  0.05502682  0.62240940    -0.14510
C844        C  0.06818890  0.02677866  0.64303226    -0.14510
C845        C  0.10921401  0.02597553  0.64438873     0.07640
C846        C  0.13034988  0.05591739  0.62749290    -0.14510
H847        H  0.12757051  0.10709750  0.59384044     0.11620
H848        H  0.01737015  0.05428730  0.62044978     0.11620
H849        H  0.05111824  0.00442554  0.65644070     0.11620
H850        H  0.16190844  0.05579183  0.62764939     0.11620
C851        C  0.18189570  0.16756830  0.54229234    -0.14510
C852        C  0.16692110  0.18650796  0.51009787     0.07640
C853        C  0.19235811  0.19483793  0.47952588    -0.14510
C854        C  0.23184228  0.18435759  0.48118702    -0.14510
C855        C  0.24670604  0.16436796  0.51303263     0.07640
C856        C  0.22095508  0.15618230  0.54353439    -0.14510
H857        H  0.16303213  0.16035825  0.56616501     0.11620
H858        H  0.18175413  0.20956715  0.45437177     0.11620
H859        H  0.25065900  0.19188476  0.45738029     0.11620
H860        H  0.23042835  0.13992688  0.56810965     0.11620
C861        C  0.84647924  0.08841178  0.59672098    -0.14510
C862        C  0.88736014  0.08629070  0.59592075     0.07640
C863        C  0.90618440  0.05580152  0.61398416    -0.14510
C864        C  0.88443919  0.02698040  0.63128517    -0.14510
C865        C  0.84344609  0.02746223  0.62973884     0.07640
C866        C  0.82454947  0.05901112  0.61333524    -0.14510
H867        H  0.83155532  0.11160371  0.58262282     0.11620
H868        H  0.93770875  0.05393830  0.61404625     0.11620
H869        H  0.89969043  0.00310967  0.64417056     0.11620
H870        H  0.79307227  0.05977919  0.61131078     0.11620
C871        C  0.77598936  0.20190494  0.47739268    -0.14510
C872        C  0.80246258  0.19395386  0.50675836     0.07640
C873        C  0.78884168  0.17541346  0.53984433    -0.14510
C874        C  0.75056199  0.16252628  0.54258426    -0.14510
C875        C  0.72361864  0.16950158  0.51306360     0.07640
C876        C  0.73680455  0.19080251  0.48097820    -0.14510
H877        H  0.78548719  0.21685950  0.45187213     0.11620
H878        H  0.80838621  0.16942622  0.56331938     0.11620
H879        H  0.74311898  0.14589367  0.56755349     0.11620
H880        H  0.71727544  0.19874294  0.45813436     0.11620
C881        C  0.94533931  0.34047065  0.63531506    -0.14510
C882        C  0.91751180  0.33631894  0.60622222     0.07640
C883        C  0.88392526  0.35907316  0.60665878    -0.14510
C884        C  0.87925245  0.38724562  0.63530106    -0.14510
C885        C  0.90779851  0.39214176  0.66387292     0.07640
C886        C  0.94037141  0.36796689  0.66427233    -0.14510
H887        H  0.97148906  0.32302685  0.63490716     0.11620
H888        H  0.86219352  0.35586302  0.58438008     0.11620
H889        H  0.85403969  0.40600502  0.63461182     0.11620
H890        H  0.96288869  0.37178735  0.68570157     0.11620
C891        C  0.00450648  0.27723742  0.69447617    -0.14510
C892        C  0.97402448  0.25461950  0.67955341     0.07640
C893        C  0.93787167  0.25624480  0.69924866    -0.14510
C894        C  0.93240065  0.27953786  0.73240091    -0.14510
C895        C  0.96273767  0.30254508  0.74718998     0.07640
C896        C  0.99890661  0.30089695  0.72732901    -0.14510
H897        H  0.03237620  0.27802062  0.67975085     0.11620
H898        H  0.91332758  0.23981048  0.68867915     0.11620
H899        H  0.90426939  0.27922234  0.74659711     0.11620
H900        H  0.02299076  0.31874193  0.73641637     0.11620
C901        C  0.33763580  0.87704263  0.94248697    -0.14510
C902        C  0.33773906  0.83648405  0.94243020     0.07640
C903        C  0.35629720  0.81679485  0.91200437    -0.14510
C904        C  0.37688492  0.83714032  0.88406937    -0.14510
C905        C  0.37987946  0.87734812  0.88649966     0.07640
C906        C  0.35920124  0.89727452  0.91521660    -0.14510
H907        H  0.32308553  0.89302727  0.96531740     0.11620
H908        H  0.35738322  0.78569079  0.91137559     0.11620
H909        H  0.39226438  0.82135763  0.86170779     0.11620
H910        H  0.36022864  0.92835956  0.91686611     0.11620
C911        C  0.35781053  0.06272929  0.95003905    -0.14510
C912        C  0.35683297  0.10297865  0.94671216     0.07640
C913        C  0.36755802  0.11973896  0.91173206    -0.14510
C914        C  0.38180355  0.09673209  0.88164726    -0.14510
C915        C  0.38613580  0.05696404  0.88654870     0.07640
C916        C  0.37302962  0.03996276  0.92044813    -0.14510
H917        H  0.34868978  0.04901507  0.97639370     0.11620
H918        H  0.36728245  0.15065017  0.90849316     0.11620
H919        H  0.39174895  0.11023231  0.85552984     0.11620
H920        H  0.37554401  0.00922112  0.92439685     0.11620
C921        C  0.08798942  0.50717706  0.39531047    -0.14510
C922        C  0.12532906  0.51467562  0.38027231     0.07640
C923        C  0.13980071  0.55226799  0.38164681    -0.14510
C924        C  0.11764437  0.58159967  0.39894489    -0.14510
C925        C  0.08081509  0.57361243  0.41514101     0.07640
C926        C  0.06619529  0.53615915  0.41286618    -0.14510
H927        H  0.07552080  0.47864787  0.39353575     0.11620
H928        H  0.16839759  0.55872359  0.37012835     0.11620
H929        H  0.12964787  0.61032902  0.40030342     0.11620
H930        H  0.03773944  0.52922129  0.42445156     0.11620
C931        C  0.11863121  0.35256276  0.35838708    -0.14510
C932        C  0.14226556  0.37702255  0.38066453     0.07640
C933        C  0.14298496  0.37220889  0.42084838    -0.14510
C934        C  0.11758235  0.34658512  0.43863094    -0.14510
C935        C  0.09209563  0.32431128  0.41647190     0.07640
C936        C  0.09399494  0.32608359  0.37620938    -0.14510
H937        H  0.11701331  0.35584451  0.32750041     0.11620
H938        H  0.16126007  0.39031926  0.43871995     0.11620
H939        H  0.11740977  0.34452361  0.46970304     0.11620
H940        H  0.07502638  0.30835124  0.35870335     0.11620
C941        C  0.10036006  0.55715806  0.65454203    -0.14510
C942        C  0.12050394  0.52705575  0.63607908     0.07640
C943        C  0.12287808  0.52617509  0.59560332    -0.14510
C944        C  0.10242141  0.55281759  0.57395737    -0.14510
C945        C  0.08062824  0.58147943  0.59255588     0.07640
C946        C  0.08076579  0.58439558  0.63280872    -0.14510
H947        H  0.09747036  0.55812266  0.68557293     0.11620
H948        H  0.13861757  0.50338012  0.58074564     0.11620
H949        H  0.10322882  0.55085111  0.54283868     0.11620
H950        H  0.06403462  0.60657341  0.64738195     0.11620
C951        C  0.12429891  0.35669548  0.63965940    -0.14510
C952        C  0.10234361  0.38945195  0.64901503     0.07640
C953        C  0.06369140  0.39247653  0.63621926    -0.14510
C954        C  0.04832621  0.36489602  0.61152386    -0.14510
C955        C  0.07089166  0.33316026  0.60029290     0.07640
C956        C  0.10845369  0.32840329  0.61562510    -0.14510
H957        H  0.15423491  0.35412967  0.64903294     0.11620
H958        H  0.04624372  0.41755289  0.64347025     0.11620
H959        H  0.01894149  0.36856716  0.60093789     0.11620
H960        H  0.12603245  0.30360228  0.60781216     0.11620
C961        C  0.11126892  0.60268375  0.10805813    -0.14510
C962        C  0.10165476  0.56510861  0.09589823     0.07640
C963        C  0.06348012  0.55194589  0.10057887    -0.14510
C964        C  0.03518862  0.57602579  0.11626487    -0.14510
C965        C  0.04420789  0.61406066  0.12700610     0.07640
C966        C  0.08262481  0.62708359  0.12356077    -0.14510
H967        H  0.14064585  0.61349317  0.10468445     0.11620
H968        H  0.05543928  0.52299250  0.09210049     0.11620
H969        H  0.00595046  0.56488881  0.11987523     0.11620
H970        H  0.09018702  0.65614956  0.13204721     0.11620
C971        C  0.06632415  0.38529991  0.10900642    -0.14510
C972        C  0.10153070  0.36899922  0.09688128     0.07640
C973        C  0.11000375  0.33046491  0.10612624    -0.14510
C974        C  0.08276698  0.30814424  0.12594722    -0.14510
C975        C  0.04707856  0.32436902  0.13701734     0.07640
C976        C  0.03969711  0.36341472  0.12937506    -0.14510
H977        H  0.05954058  0.41506072  0.10308146     0.11620
H978        H  0.13731341  0.31737736  0.09722604     0.11620
H979        H  0.08897094  0.27820252  0.13150783     0.11620
H980        H  0.01256353  0.37680433  0.13838742     0.11620
C981        C  0.22430776  0.48696660  0.21517128    -0.14510
C982        C  0.21165080  0.45918578  0.18845731     0.07640
C983        C  0.18943500  0.42804181  0.20172079    -0.14510
C984        C  0.17951906  0.42494260  0.24052323    -0.14510
C985        C  0.19188677  0.45267644  0.26741446     0.07640
C986        C  0.21475511  0.48358481  0.25433057    -0.14510
H987        H  0.24156251  0.51116882  0.20580906     0.11620
H988        H  0.17862687  0.40645820  0.18178919     0.11620
H989        H  0.16100836  0.40138872  0.24916565     0.11620
H990        H  0.22494806  0.50534930  0.27435393     0.11620
C991        C  0.38823182  0.36532269  0.93378683    -0.14510
C992        C  0.35322344  0.37177257  0.91429905     0.07640
C993        C  0.34917051  0.35702749  0.87660057    -0.14510
C994        C  0.38047285  0.33768136  0.85835254    -0.14510
C995        C  0.41598127  0.33256836  0.87778609     0.07640
C996        C  0.41876906  0.34564197  0.91610302    -0.14510
H997        H  0.39214131  0.37550145  0.96304179     0.11620
H998        H  0.32233464  0.36136124  0.86097374     0.11620
H999        H  0.37728245  0.32764229  0.82895440     0.11620
H1000       H  0.44497660  0.34088714  0.93263315     0.11620
C1001       C  0.25305617  0.26503409  0.03882653    -0.14510
C1002       C  0.25703893  0.28861222  0.00646285     0.07640
C1003       C  0.28260817  0.27725677  0.97679896    -0.14510
C1004       C  0.30421497  0.24344222  0.97966482    -0.14510
C1005       C  0.30036668  0.21977256  0.01199077     0.07640
C1006       C  0.27435653  0.23081607  0.04146649    -0.14510
H1007       H  0.23399073  0.27342792  0.06239878     0.11620
H1008       H  0.28737843  0.29546262  0.95215514     0.11620
H1009       H  0.32465772  0.23625844  0.95685012     0.11620
H1010       H  0.27045874  0.21301458  0.06651954     0.11620
C1011       C  0.07527699  0.57775640  0.93098831    -0.14510
C1012       C  0.10474601  0.55527137  0.91467069     0.07640
C1013       C  0.10999915  0.55389870  0.87452100    -0.14510
C1014       C  0.08391476  0.57279121  0.85058184    -0.14510
C1015       C  0.05313568  0.59378711  0.86690619     0.07640
C1016       C  0.05012033  0.59761676  0.90722428    -0.14510
H1017       H  0.07175828  0.57985995  0.96193169     0.11620
H1018       H  0.13338409  0.53698108  0.86177979     0.11620
H1019       H  0.08633754  0.56916233  0.81967646     0.11620
H1020       H  0.02648840  0.61397065  0.92024634     0.11620
C1021       C  0.05260997  0.40928419  0.91216178    -0.14510
C1022       C  0.08733948  0.38757017  0.91280266     0.07640
C1023       C  0.08834604  0.35350443  0.89039918    -0.14510
C1024       C  0.05544201  0.34151551  0.86872754    -0.14510
C1025       C  0.02056201  0.36347577  0.86829128     0.07640
C1026       C  0.02037228  0.39775278  0.89023786    -0.14510
H1027       H  0.05044495  0.43613276  0.92809602     0.11620
H1028       H  0.11440538  0.33591332  0.88987381     0.11620
H1029       H  0.05745589  0.31487726  0.85251181     0.11620
H1030       H  0.99555130  0.41671495  0.88968902     0.11620
C1031       C  0.16933218  0.43871776  0.82105324    -0.14510
C1032       C  0.19838938  0.46520458  0.83122982     0.07640
C1033       C  0.21225777  0.49086751  0.80360978    -0.14510
C1034       C  0.19802784  0.48907439  0.76590143    -0.14510
C1035       C  0.16900076  0.46225635  0.75560570     0.07640
C1036       C  0.15451806  0.43754486  0.78393460    -0.14510
H1037       H  0.15732414  0.41933744  0.84220156     0.11620
H1038       H  0.23448426  0.51168883  0.81099189     0.11620
H1039       H  0.21004914  0.50840638  0.74479280     0.11620
H1040       H  0.13117101  0.41759023  0.77775914     0.11620
C1041       C  0.38977677  0.56419445  0.93743493    -0.14510
C1042       C  0.35544575  0.55532975  0.91783098     0.07640
C1043       C  0.34991057  0.56936442  0.88036863    -0.14510
C1044       C  0.37950831  0.59015138  0.86205606    -0.14510
C1045       C  0.41454870  0.59739229  0.88133424     0.07640
C1046       C  0.41866957  0.58543459  0.91963556    -0.14510
H1047       H  0.39427055  0.55483740  0.96669829     0.11620
H1048       H  0.32325599  0.56329373  0.86492387     0.11620
H1049       H  0.37564097  0.59928997  0.83265517     0.11620
H1050       H  0.44497683  0.59171072  0.93560754     0.11620
C1051       C  0.27624284  0.65738956  0.97878943    -0.14510
C1052       C  0.25719837  0.64262638  0.01134682     0.07640
C1053       C  0.25426459  0.66626174  0.04438207    -0.14510
C1054       C  0.26986848  0.70361348  0.04471269    -0.14510
C1055       C  0.28937550  0.71822441  0.01220567     0.07640
C1056       C  0.29228615  0.69436302  0.97929665    -0.14510
H1057       H  0.27996472  0.63983892  0.95309869     0.11620
H1058       H  0.24002342  0.65583562  0.07007893     0.11620
H1059       H  0.26652672  0.72105516  0.07049391     0.11620
H1060       H  0.30794905  0.70372468  0.95401271     0.11620
C1061       C  0.86596589  0.88869872  0.40081575    -0.14510
C1062       C  0.86016759  0.88346399  0.36107747     0.07640
C1063       C  0.87026703  0.84829953  0.34368879    -0.14510
C1064       C  0.88792839  0.81956067  0.36565155    -0.14510
C1065       C  0.89610994  0.82616933  0.40488327     0.07640
C1066       C  0.88423330  0.86062319  0.42235977    -0.14510
H1067       H  0.85766631  0.91541226  0.41493143     0.11620
H1068       H  0.86602859  0.84376276  0.31313351     0.11620
H1069       H  0.89664437  0.79287772  0.35171965     0.11620
H1070       H  0.88937398  0.86597569  0.45266871     0.11620
C1071       C  0.87015152  0.05621888  0.34918859    -0.14510
C1072       C  0.86836333  0.01878682  0.36349280     0.07640
C1073       C  0.88188348  0.01167742  0.40091658    -0.14510
C1074       C  0.89810120  0.04083169  0.42309724    -0.14510
C1075       C  0.90056575  0.07814772  0.40880929     0.07640
C1076       C  0.88617609  0.08576306  0.37172926    -0.14510
H1077       H  0.85968652  0.06243646  0.32059133     0.11620
H1078       H  0.87964396  0.98340863  0.41337485     0.11620
H1079       H  0.90835579  0.03414955  0.45167047     0.11620
H1080       H  0.88783358  0.11438284  0.35994606     0.11620
C1081       C  0.11307272  0.84070299  0.42437820    -0.14510
C1082       C  0.08040091  0.82406946  0.40706723     0.07640
C1083       C  0.07139317  0.83247856  0.36877144    -0.14510
C1084       C  0.09337029  0.85963113  0.34881846    -0.14510
C1085       C  0.12513201  0.87753557  0.36673423     0.07640
C1086       C  0.13547376  0.86715364  0.40421767    -0.14510
H1087       H  0.12070784  0.83379917  0.45370649     0.11620
H1088       H  0.04650350  0.81921185  0.35497474     0.11620
H1089       H  0.08440848  0.86819571  0.32034440     0.11620
H1090       H  0.15929205  0.88153758  0.41875342     0.11620
C1091       C  0.10569509  0.01099896  0.41924904    -0.14510
C1092       C  0.12068244  0.01607184  0.38187929     0.07640
C1093       C  0.11570505  0.05158177  0.36395481    -0.14510
C1094       C  0.09478375  0.08098202  0.38259414    -0.14510
C1095       C  0.07836005  0.07517528  0.41932100     0.07640
C1096       C  0.08443818  0.04003704  0.43757764    -0.14510
H1097       H  0.10999148  0.98419316  0.43419251     0.11620
H1098       H  0.12688136  0.05614423  0.33518527     0.11620
H1099       H  0.09070829  0.10795477  0.36790782     0.11620
H1100       H  0.07294738  0.03503553  0.46615563     0.11620
C1101       C  0.54883426  0.36635001  0.12251311    -0.14510
C1102       C  0.55316757  0.32645845  0.12786511     0.07640
C1103       C  0.59012852  0.30986491  0.12204965    -0.14510
C1104       C  0.62101704  0.33221365  0.10830781    -0.14510
C1105       C  0.61480274  0.37079122  0.09832228     0.07640
C1106       C  0.57888692  0.38796550  0.10685473    -0.14510
H1107       H  0.52148455  0.38071973  0.12881790     0.11620
H1108       H  0.59479320  0.27945783  0.12637153     0.11620
H1109       H  0.64913521  0.31884653  0.10379644     0.11620
H1110       H  0.57384619  0.41803999  0.10080917     0.11620
C1111       C  0.35132107  0.34635493  0.12159873    -0.14510
C1112       C  0.35322610  0.36054003  0.08393500     0.07640
C1113       C  0.38284270  0.34745563  0.05915056    -0.14510
C1114       C  0.41153619  0.32265351  0.07239740    -0.14510
C1115       C  0.41182926  0.31121100  0.11104472     0.07640
C1116       C  0.38068876  0.32206208  0.13520457    -0.14510
H1117       H  0.32823332  0.35553543  0.14099598     0.11620
H1118       H  0.38412007  0.35688193  0.02962393     0.11620
H1119       H  0.43489588  0.31413971  0.05299839     0.11620
H1120       H  0.38038704  0.31380918  0.16513953     0.11620
C1121       C  0.58262632  0.61864704  0.11058312    -0.14510
C1122       C  0.54978429  0.60114346  0.12680378     0.07640
C1123       C  0.54714808  0.56066439  0.12617000    -0.14510
C1124       C  0.57506119  0.53834080  0.10711571    -0.14510
C1125       C  0.60701718  0.55593340  0.08977073     0.07640
C1126       C  0.61127544  0.59610437  0.09251059    -0.14510
H1127       H  0.58531542  0.64964132  0.11040850     0.11620
H1128       H  0.52263916  0.54626199  0.13939887     0.11620
H1129       H  0.57193989  0.50736933  0.10627254     0.11620
H1130       H  0.63622376  0.61008839  0.07959397     0.11620
C1131       C  0.40658018  0.56863150  0.14080810    -0.14510
C1132       C  0.40852959  0.60818729  0.13265900     0.07640
C1133       C  0.38117276  0.62411253  0.10761209    -0.14510
C1134       C  0.35385082  0.60029682  0.08935263    -0.14510
C1135       C  0.35440733  0.56032044  0.09518065     0.07640
C1136       C  0.38019748  0.54480644  0.12175380    -0.14510
H1137       H  0.42759947  0.55571637  0.15992522     0.11620
H1138       H  0.38251098  0.65426964  0.10038349     0.11620
H1139       H  0.33323207  0.61278180  0.06954002     0.11620
H1140       H  0.38011140  0.51427995  0.12750544     0.11620
C1141       C  0.57455729  0.09715524  0.07665121    -0.14510
C1142       C  0.61385197  0.10831452  0.07839433     0.07640
C1143       C  0.63595419  0.09885236  0.11076825    -0.14510
C1144       C  0.61939634  0.07630584  0.13977550    -0.14510
C1145       C  0.58105190  0.06243817  0.13596467     0.07640
C1146       C  0.55869124  0.07377109  0.10459515    -0.14510
H1147       H  0.55663568  0.10483617  0.05232412     0.11620
H1148       H  0.66626827  0.10720898  0.11265940     0.11620
H1149       H  0.63692407  0.06842131  0.16427958     0.11620
H1150       H  0.52892001  0.06425462  0.10148762     0.11620
C1151       C  0.43322898  0.08209970  0.10839122    -0.14510
C1152       C  0.40885795  0.06797496  0.13733840     0.07640
C1153       C  0.37105013  0.08331462  0.14155186    -0.14510
C1154       C  0.35679649  0.10976101  0.11496816    -0.14510
C1155       C  0.38050566  0.12173010  0.08442670     0.07640
C1156       C  0.41944406  0.10916860  0.08260154    -0.14510
H1157       H  0.46281439  0.07182784  0.10541605     0.11620
H1158       H  0.35200961  0.07359437  0.16437512     0.11620
H1159       H  0.32657130  0.11868473  0.11665360     0.11620
H1160       H  0.43829090  0.11810858  0.05927225     0.11620
C1161       C  0.45717123  0.15050376  0.20419805    -0.14510
C1162       C  0.48661157  0.14309563  0.23107403     0.07640
C1163       C  0.51495224  0.17133214  0.23785114    -0.14510
C1164       C  0.51352544  0.20643489  0.21828038    -0.14510
C1165       C  0.48453745  0.21347057  0.19044982     0.07640
C1166       C  0.45650119  0.18472083  0.18380086    -0.14510
H1167       H  0.43553601  0.12888109  0.19739835     0.11620
H1168       H  0.53817336  0.16622803  0.25815127     0.11620
H1169       H  0.53531597  0.22784651  0.22497875     0.11620
H1170       H  0.43453674  0.18780307  0.16184430     0.11620
C1171       C  0.38440504  0.89884976  0.41863242    -0.14510
C1172       C  0.39532339  0.87897889  0.38503247     0.07640
C1173       C  0.38128096  0.84144742  0.37864385    -0.14510
C1174       C  0.35853887  0.82331514  0.40660587    -0.14510
C1175       C  0.34924238  0.84273822  0.44097988     0.07640
C1176       C  0.36121848  0.88109645  0.44604868    -0.14510
H1177       H  0.39381132  0.92815374  0.42375427     0.11620
H1178       H  0.38892948  0.82572146  0.35261416     0.11620
H1179       H  0.34975513  0.79373420  0.40217386     0.11620
H1180       H  0.35372834  0.89694619  0.47206643     0.11620
C1181       C  0.38323847  0.09765027  0.38052913    -0.14510
C1182       C  0.40096779  0.06188743  0.38786709     0.07640
C1183       C  0.39840925  0.04664191  0.42488584    -0.14510
C1184       C  0.37924722  0.06668885  0.45404526    -0.14510
C1185       C  0.36279774  0.10305098  0.44742111     0.07640
C1186       C  0.36429549  0.11818521  0.41021496    -0.14510
H1187       H  0.38463211  0.11000847  0.35211902     0.11620
H1188       H  0.41095338  0.01888894  0.43138745     0.11620
H1189       H  0.37744832  0.05364004  0.48213740     0.11620
H1190       H  0.35167157  0.14604728  0.40438775     0.11620
C1191       C  0.29785986  0.92816904  0.29987135    -0.14510
C1192       C  0.31010001  0.96080187  0.27969100     0.07640
C1193       C  0.28324498  0.99063721  0.27377922    -0.14510
C1194       C  0.24492088  0.98771854  0.28787725    -0.14510
C1195       C  0.23301020  0.95530689  0.30892574     0.07640
C1196       C  0.26018330  0.92565247  0.31459926    -0.14510
H1197       H  0.31801593  0.90502255  0.30589222     0.11620
H1198       H  0.29190733  0.01620261  0.25850388     0.11620
H1199       H  0.22475744  0.01098142  0.28252246     0.11620
H1200       H  0.25302727  0.90086076  0.33170715     0.11620
C1201       C  0.64658165  0.86065082  0.09977173    -0.14510
C1202       C  0.62892707  0.82748677  0.08447862     0.06800
C1203       C  0.59139272  0.81738439  0.09690818    -0.14510
C1204       C  0.57102060  0.84103164  0.12276603    -0.14510
C1205       C  0.58804720  0.87489712  0.13677294     0.07640
C1206       C  0.62642773  0.88395500  0.12631030    -0.14510
H1207       H  0.67499912  0.86953808  0.08955118     0.11620
H1208       H  0.57682343  0.79264081  0.08447152     0.11620
H1209       H  0.54169792  0.83327786  0.13135912     0.11620
H1210       H  0.64018492  0.90964615  0.13764673     0.11620
C1211       C  0.42099723  0.86327488  0.09900978    -0.14510
C1212       C  0.40280382  0.87140782  0.13429838     0.07640
C1213       C  0.36637069  0.85452162  0.14241256    -0.14510
C1214       C  0.34752003  0.83172532  0.11473966    -0.14510
C1215       C  0.36510556  0.82513778  0.07882221     0.07640
C1216       C  0.40259309  0.84001455  0.07182665    -0.14510
H1217       H  0.44946852  0.87491530  0.09237151     0.11620
H1218       H  0.35189527  0.85993804  0.16969827     0.11620
H1219       H  0.31856365  0.82089201  0.12063806     0.11620
H1220       H  0.41696804  0.83495307  0.04440582     0.11620
C1221       C  0.52307686  0.77602537  0.20799536    -0.14510
C1222       C  0.49359478  0.78859436  0.23338379     0.07640
C1223       C  0.46170503  0.76420055  0.24000366    -0.14510
C1224       C  0.45912444  0.72834185  0.22126930    -0.14510
C1225       C  0.48793648  0.71624032  0.19467739     0.07640
C1226       C  0.52009719  0.74066130  0.18863186    -0.14510
H1227       H  0.54753144  0.79449498  0.20140991     0.11620
H1228       H  0.43836513  0.77315391  0.25921078     0.11620
H1229       H  0.43431697  0.71029724  0.22752617     0.11620
H1230       H  0.54250763  0.73323888  0.16782621     0.11620
C1231       C  0.55860390  0.86100987  0.41954912    -0.14510
C1232       C  0.57948006  0.87465212  0.38789403     0.07640
C1233       C  0.61954685  0.86679598  0.38477810    -0.14510
C1234       C  0.63897607  0.84766204  0.41423353    -0.14510
C1235       C  0.61835545  0.83521749  0.44680796     0.07640
C1236       C  0.57766300  0.84080411  0.44827800    -0.14510
H1237       H  0.52749510  0.86593562  0.42200677     0.11620
H1238       H  0.63607955  0.87682549  0.36033027     0.11620
H1239       H  0.67028095  0.84417039  0.41224183     0.11620
H1240       H  0.56056634  0.83045547  0.47225997     0.11620
C1241       C  0.54966344  0.08634912  0.41470093    -0.14510
C1242       C  0.57270650  0.06850574  0.38640366     0.07640
C1243       C  0.61296363  0.07519613  0.38535810    -0.14510
C1244       C  0.63056469  0.09681051  0.41441767    -0.14510
C1245       C  0.60789864  0.11279337  0.44433901     0.07640
C1246       C  0.56705405  0.10905265  0.44300710    -0.14510
H1247       H  0.51835733  0.08233236  0.41511819     0.11620
H1248       H  0.63101212  0.06193398  0.36322877     0.11620
H1249       H  0.66204520  0.09867753  0.41479901     0.11620
H1250       H  0.54877303  0.12182835  0.46521429     0.11620
C1251       C  0.70104744  0.99291993  0.26674528    -0.14510
C1252       C  0.67383233  0.96539510  0.27861451     0.07640
C1253       C  0.68658217  0.93474683  0.30130402    -0.14510
C1254       C  0.72534743  0.93162195  0.31231944    -0.14510
C1255       C  0.75304876  0.95858413  0.30018472     0.07640
C1256       C  0.74043679  0.98929095  0.27707443    -0.14510
H1257       H  0.69198465  0.01684377  0.24924637     0.11620
H1258       H  0.66619015  0.91345193  0.31147936     0.11620
H1259       H  0.73315797  0.90847206  0.33130767     0.11620
H1260       H  0.76097996  0.01054604  0.26703868     0.11620
loop_ 
_geom_bond_atom_site_label_1 
_geom_bond_atom_site_label_2 
_geom_bond_distance 
_geom_bond_site_symmetry_2 
_ccdc_geom_bond_type 
O1          Zr37   2.417       .  S
O1           C12   1.289       .  A
O2          Zr36   2.433       .  S
O2           C13   1.292       .  A
O3           Zr9   2.413       .  S
O3           C14   1.287       .  A
O4           Zr9   2.406       .  S
O4           C15   1.286       .  A
O5          Zr39   2.448   1_545  S
O5           C15   1.295       .  A
O6          Zr38   2.450   1_545  S
O6           C14   1.296       .  A
O7           Zr9   2.468       .  S
O7           C13   1.297       .  A
O8           Zr9   2.467       .  S
O8           C12   1.296   1_545  A
Zr9          O10   2.349       .  S
Zr9          O11   2.344   1_545  S
Zr9          O19   2.342   1_545  S
Zr9          O17   2.332       .  S
O10         Zr36   2.343       .  S
O10         Zr39   2.344   1_545  S
O11         Zr37   2.346       .  S
O11         Zr38   2.353       .  S
C12        C1252   1.481       .  S
C13        C1162   1.482       .  S
C14        C1145   1.469       .  S
C15        C1242   1.459       .  S
H16          O17   0.963       .  S
O17         Zr36   2.340       .  S
O17         Zr38   2.319   1_545  S
H18          O19   0.965       .  S
O19         Zr37   2.343       .  S
O19         Zr39   2.334       .  S
O20         Zr36   2.462   1_565  S
O20          C43   1.296       .  A
O21         Zr37   2.457       .  S
O21          C44   1.296       .  A
O22         Zr38   2.468   1_545  S
O22          C45   1.299       .  A
O23         Zr39   2.437   1_545  S
O23          C46   1.294       .  A
O24         Zr39   2.446       .  S
O24          C47   1.295       .  A
O25         Zr38   2.466       .  S
O25          C48   1.298       .  A
O26         Zr40   2.411       .  S
O26          C49   1.287       .  A
O27         Zr40   2.416       .  S
O27          C50   1.288       .  A
O28         Zr38   2.461       .  S
O28          C49   1.298       .  A
O29         Zr39   2.449       .  S
O29          C50   1.296       .  A
O30         Zr36   2.409       .  S
O30          C45   1.287       .  A
O31         Zr37   2.411       .  S
O31          C48   1.286       .  A
O32         Zr37   2.426       .  S
O32          C47   1.290       .  A
O33         Zr36   2.430       .  S
O33          C46   1.290       .  A
O34         Zr40   2.420       .  S
O34          C43   1.290       .  A
O35         Zr40   2.443       .  S
O35          C44   1.293       .  A
Zr36         O42   2.348   1_545  S
Zr36         O54   2.326   1_545  S
Zr37         O41   2.335       .  S
Zr37         O52   2.329       .  S
Zr38         O42   2.357       .  S
Zr38         O52   2.324       .  S
Zr39         O41   2.350       .  S
Zr39         O54   2.327       .  S
Zr40         O41   2.337       .  S
Zr40         O42   2.346       .  S
Zr40         O54   2.337       .  S
Zr40         O52   2.326       .  S
C43        C1192   1.482       .  S
C44        C1222   1.488       .  S
C45        C1152   1.474       .  S
C46        C1182   1.478       .  S
C47        C1232   1.470       .  S
C48        C1205   1.463       .  S
C49        C1212   1.477       .  S
C50        C1172   1.472       .  S
H51          O52   0.964       .  S
H53          O54   0.965       .  S
C55        C1225   1.504       .  S
C55          C56   1.423       .  A
C55          C60   1.419       .  A
C56          C57   1.408       .  A
C56          H61   1.082       .  S
C57        C1132   1.478       .  S
C57          C58   1.388       .  A
C58          C59   1.388       .  A
C58          H62   1.085       .  S
C59        C1122   1.482       .  S
C59          C60   1.406       .  A
C60          H63   1.082       .  S
C64        C1165   1.502       .  S
C64          C65   1.418       .  A
C64          C69   1.417       .  A
C65          C66   1.402       .  A
C65          H70   1.082       .  S
C66        C1115   1.481       .  S
C66          C67   1.392       .  A
C67          C68   1.397       .  A
C67          H71   1.083       .  S
C68        C1102   1.489       .  S
C68          C69   1.408       .  A
C69          H72   1.081       .  S
C73        C1195   1.495       .  S
C73          C74   1.416       .  A
C73          C78   1.415       .  A
C74          C75   1.398       .  A
C74          H79   1.082       .  S
C75        C1085   1.465       .  S
C75          C76   1.388       .  A
C76          C77   1.395       .  A
C76          H80   1.085       .  S
C77        C1092   1.480   1_565  S
C77          C78   1.407       .  A
C78          H81   1.083   1_565  S
C82        C1255   1.494       .  S
C82          C83   1.412       .  A
C82          C87   1.418       .  A
C83          C84   1.404       .  A
C83          H88   1.083   1_565  S
C84        C1072   1.479   1_565  S
C84          C85   1.394       .  A
C85          C86   1.392       .  A
C85          H89   1.085       .  S
C86        C1062   1.476       .  S
C86          C87   1.402       .  A
C87          H90   1.082       .  S
O91        Zr127   2.480       .  S
O91         C102   1.301       .  A
O92        Zr126   2.443       .  S
O92         C103   1.295       .  A
O93         Zr99   2.454       .  S
O93         C104   1.295       .  A
O94         Zr99   2.468       .  S
O94         C105   1.297       .  A
O95        Zr129   2.419       .  S
O95         C105   1.289       .  A
O96        Zr128   2.454       .  S
O96         C104   1.295   1_556  A
O97         Zr99   2.413       .  S
O97         C103   1.287       .  A
O98         Zr99   2.396       .  S
O98         C102   1.284       .  A
Zr99        O100   2.336       .  S
Zr99        O101   2.336       .  S
Zr99        O109   2.351       .  S
Zr99        O107   2.345       .  S
O100       Zr126   2.337       .  S
O100       Zr129   2.337       .  S
O101       Zr127   2.317       .  S
O101       Zr128   2.318   1_554  S
C102       C1135   1.466       .  S
C103        C962   1.470       .  S
C104       C1052   1.496       .  S
C105        C982   1.485       .  S
H106        O107   0.966       .  S
O107       Zr126   2.357       .  S
O107       Zr128   2.347   1_554  S
H108        O109   0.966       .  S
O109       Zr127   2.352       .  S
O109       Zr129   2.340       .  S
O110       Zr126   2.443   1_556  S
O110        C133   1.295       .  A
O111       Zr127   2.441   1_556  S
O111        C134   1.296       .  A
O112       Zr128   2.376       .  S
O112        C135   1.280       .  A
O113       Zr129   2.393       .  S
O113        C136   1.283       .  A
O114       Zr129   2.423       .  S
O114        C137   1.288       .  A
O115       Zr128   2.409       .  S
O115        C138   1.285       .  A
O116       Zr130   2.411       .  S
O116        C139   1.288       .  A
O117       Zr130   2.443       .  S
O117        C140   1.294   1_556  A
O118       Zr128   2.450       .  S
O118        C139   1.293       .  A
O119       Zr129   2.421       .  S
O119        C140   1.288       .  A
O120       Zr126   2.459   1_556  S
O120        C135   1.297       .  A
O121       Zr127   2.445   1_556  S
O121        C138   1.295       .  A
O122       Zr127   2.443       .  S
O122        C137   1.294       .  A
O123       Zr126   2.469       .  S
O123        C136   1.299       .  A
O124       Zr130   2.511       .  S
O124        C133   1.306       .  A
O125       Zr130   2.456       .  S
O125        C134   1.296       .  A
Zr126       O132   2.328   1_554  S
Zr126       O144   2.357       .  S
Zr127       O131   2.329       .  S
Zr127       O142   2.361   1_554  S
Zr128       O132   2.331       .  S
Zr128       O142   2.328       .  S
Zr129       O131   2.310       .  S
Zr129       O144   2.352       .  S
Zr130       O131   2.335   1_556  S
Zr130       O132   2.323       .  S
Zr130       O144   2.339   1_556  S
Zr130       O142   2.367       .  S
C133       C1022   1.516       .  S
C134        C992   1.484       .  S
C135       C1012   1.449       .  S
C136        C972   1.469       .  S
C137       C1112   1.473       .  S
C138       C1042   1.470       .  S
C139       C1032   1.471       .  S
C140       C1002   1.476       .  S
H141        O142   0.966       .  S
H143        O144   0.966       .  S
C145       C1035   1.488       .  S
C145        C146   1.415       .  A
C145        C150   1.412       .  A
C146        C147   1.398       .  A
C146        H151   1.083       .  S
C147        C952   1.467       .  S
C147        C148   1.388       .  A
C148        C149   1.391       .  A
C148        H152   1.085       .  S
C149        C942   1.473       .  S
C149        C150   1.404       .  A
C150        H153   1.083       .  S
C154        C985   1.493       .  S
C154        C155   1.417       .  A
C154        C159   1.410       .  A
C155        C156   1.408       .  A
C155        H160   1.083       .  S
C156        C932   1.485       .  S
C156        C157   1.395       .  A
C157        C158   1.394       .  A
C157        H161   1.084       .  S
C158        C922   1.478       .  S
C158        C159   1.402       .  A
C159        H162   1.083       .  S
C163       C1005   1.486       .  S
C163        C164   1.416       .  A
C163        C168   1.410   1_554  A
C164        C165   1.406       .  A
C164        H169   1.083       .  S
C165       C1155   1.476       .  S
C165        C166   1.394       .  A
C166        C167   1.392   1_554  A
C166        H170   1.084       .  S
C167        C912   1.476       .  S
C167        C168   1.398       .  A
C168        H171   1.083       .  S
C172       C1055   1.505       .  S
C172        C173   1.419       .  A
C172        C177   1.420   1_554  A
C173        C174   1.408       .  A
C173        H178   1.083       .  S
C174       C1215   1.481       .  S
C174        C175   1.392       .  A
C175        C176   1.391   1_554  A
C175        H179   1.084       .  S
C176        C902   1.485       .  S
C176        C177   1.408       .  A
C177        H180   1.082       .  S
O181       Zr217   2.414       .  S
O181        C192   1.288       .  A
O182       Zr216   2.434       .  S
O182        C193   1.290       .  A
O183       Zr189   2.449   1_455  S
O183        C194   1.295       .  A
O184       Zr189   2.447       .  S
O184        C195   1.296       .  A
O185       Zr219   2.420       .  S
O185        C195   1.289       .  A
O186       Zr218   2.415       .  S
O186        C194   1.288       .  A
O187       Zr189   2.440       .  S
O187        C193   1.293       .  A
O188       Zr189   2.456   1_455  S
O188        C192   1.297       .  A
Zr189       O190   2.340       .  S
Zr189       O191   2.328   1_655  S
Zr189       O199   2.352       .  S
Zr189       O197   2.362       .  S
O190       Zr216   2.333       .  S
O190       Zr219   2.336       .  S
O191       Zr217   2.339       .  S
O191       Zr218   2.340       .  S
C192       C1095   1.476       .  S
C193        C862   1.467       .  S
C194        C842   1.462       .  S
C195       C1075   1.474       .  S
H196        O197   0.966       .  S
O197       Zr216   2.340       .  S
O197       Zr218   2.340   1_655  S
H198        O199   0.965       .  S
O199       Zr217   2.337   1_655  S
O199       Zr219   2.352       .  S
O200       Zr216   2.420       .  S
O200        C223   1.288       .  A
O201       Zr217   2.409       .  S
O201        C224   1.285       .  A
O202       Zr218   2.505       .  S
O202        C225   1.304   1_455  A
O203       Zr219   2.471       .  S
O203        C226   1.297       .  A
O204       Zr219   2.447       .  S
O204        C227   1.294       .  A
O205       Zr218   2.444       .  S
O205        C228   1.294       .  A
O206       Zr220   2.453   1_455  S
O206        C229   1.296       .  A
O207       Zr220   2.464       .  S
O207        C230   1.299       .  A
O208       Zr218   2.393       .  S
O208        C229   1.284       .  A
O209       Zr219   2.416       .  S
O209        C230   1.288       .  A
O210       Zr216   2.438       .  S
O210        C225   1.292       .  A
O211       Zr217   2.453       .  S
O211        C228   1.295       .  A
O212       Zr217   2.458       .  S
O212        C227   1.296   1_455  A
O213       Zr216   2.406       .  S
O213        C226   1.286       .  A
O214       Zr220   2.433       .  S
O214        C223   1.291       .  A
O215       Zr220   2.466   1_455  S
O215        C224   1.297       .  A
Zr216       O222   2.310       .  S
Zr216       O234   2.348       .  S
Zr217       O221   2.334   1_455  S
Zr217       O232   2.341       .  S
Zr218       O222   2.305   1_455  S
Zr218       O232   2.355       .  S
Zr219       O221   2.345       .  S
Zr219       O234   2.347       .  S
Zr220       O221   2.325       .  S
Zr220       O222   2.323       .  S
Zr220       O234   2.363       .  S
Zr220       O232   2.347   1_655  S
C223        C882   1.454       .  S
C224        C935   1.466       .  S
C225        C892   1.516       .  S
C226        C872   1.482       .  S
C227        C832   1.492       .  S
C228        C852   1.487       .  S
C229        C955   1.463       .  S
C230        C822   1.480       .  S
H231        O232   0.966       .  S
H233        O234   0.966       .  S
C235        C875   1.509       .  S
C235        C236   1.415       .  A
C235        C240   1.424       .  A
C236        C237   1.403       .  A
C236        H241   1.079       .  S
C237       C1245   1.479       .  S
C237        C238   1.392       .  A
C238        C239   1.390       .  A
C238        H242   1.084       .  S
C239        C812   1.480       .  S
C239        C240   1.405       .  A
C240        H243   1.080       .  S
C244        C855   1.502       .  S
C244        C245   1.416       .  A
C244        C249   1.418       .  A
C245        C246   1.405       .  A
C245        H250   1.082       .  S
C246       C1185   1.482       .  S
C246        C247   1.395       .  A
C247        C248   1.393       .  A
C247        H251   1.084       .  S
C248        C802   1.485       .  S
C248        C249   1.407       .  A
C249        H252   1.081       .  S
C253        C835   1.506       .  S
C253        C254   1.421   1_655  A
C253        C258   1.422       .  A
C254        C255   1.405       .  A
C254        H259   1.081       .  S
C255        C975   1.475       .  S
C255        C256   1.387   1_455  A
C256        C257   1.384       .  A
C256        H260   1.087       .  S
C257        C792   1.471       .  S
C257        C258   1.406       .  A
C258        H261   1.082       .  S
C262        C895   1.527       .  S
C262        C263   1.416       .  A
C262        C267   1.432       .  A
C263        C264   1.407       .  A
C263        H268   1.079   1_655  S
C264       C1025   1.529   1_655  S
C264        C265   1.417       .  A
C265        C266   1.432       .  A
C265        H269   1.075       .  S
C266        C782   1.599       .  S
C266        C267   1.429       .  A
C267        H270   1.080       .  S
O271       Zr307   2.460   1_455  S
O271        C282   1.297       .  A
O272       Zr306   2.449   1_455  S
O272        C283   1.296       .  A
O273       Zr279   2.446       .  S
O273        C284   1.293       .  A
O274       Zr279   2.434       .  S
O274        C285   1.291   1_455  A
O275       Zr309   2.439       .  S
O275        C285   1.291       .  A
O276       Zr308   2.441       .  S
O276        C284   1.292       .  A
O277       Zr279   2.417       .  S
O277        C283   1.289       .  A
O278       Zr279   2.409       .  S
O278        C282   1.286       .  A
Zr279       O280   2.340   1_455  S
Zr279       O281   2.330       .  S
Zr279       O289   2.334   1_455  S
Zr279       O287   2.333       .  S
O280       Zr306   2.343       .  S
O280       Zr309   2.336       .  S
O281       Zr307   2.333   1_455  S
O281       Zr308   2.322       .  S
C282       C1082   1.459       .  S
C283        C925   1.474       .  S
C284        C752   1.484       .  S
C285        C712   1.475       .  S
H286        O287   0.966       .  S
O287       Zr306   2.361   1_455  S
O287       Zr308   2.337       .  S
H288        O289   0.965       .  S
O289       Zr307   2.348       .  S
O289       Zr309   2.334       .  S
O290       Zr306   2.462       .  S
O290        C313   1.296       .  A
O291       Zr307   2.454       .  S
O291        C314   1.297       .  A
O292       Zr308   2.406       .  S
O292        C315   1.286       .  A
O293       Zr309   2.405       .  S
O293        C316   1.286       .  A
O294       Zr309   2.415       .  S
O294        C317   1.287       .  A
O295       Zr308   2.403       .  S
O295        C318   1.285       .  A
O296       Zr310   2.435       .  S
O296        C319   1.291       .  A
O297       Zr310   2.443       .  S
O297        C320   1.293       .  A
O298       Zr308   2.429       .  S
O298        C319   1.291   1_455  A
O299       Zr309   2.436       .  S
O299        C320   1.292       .  A
O300       Zr306   2.449   1_455  S
O300        C315   1.295       .  A
O301       Zr307   2.463   1_455  S
O301        C318   1.298       .  A
O302       Zr307   2.456       .  S
O302        C317   1.297       .  A
O303       Zr306   2.470       .  S
O303        C316   1.299       .  A
O304       Zr310   2.425       .  S
O304        C313   1.288       .  A
O305       Zr310   2.411       .  S
O305        C314   1.287       .  A
Zr306       O312   2.326       .  S
Zr306       O324   2.358       .  S
Zr307       O311   2.330       .  S
Zr307       O322   2.352       .  S
Zr308       O312   2.322   1_455  S
Zr308       O322   2.345   1_455  S
Zr309       O311   2.326       .  S
Zr309       O324   2.355       .  S
Zr310       O311   2.330       .  S
Zr310       O312   2.322       .  S
Zr310       O324   2.343       .  S
Zr310       O322   2.344       .  S
C313        C762   1.470       .  S
C314        C722   1.472       .  S
C315        C945   1.456       .  S
C316        C702   1.467       .  S
C317       C1065   1.470       .  S
C318        C742   1.462       .  S
C319        C772   1.479       .  S
C320        C732   1.483       .  S
H321        O322   0.966       .  S
H323        O324   0.966       .  S
C325        C735   1.497       .  S
C325        C326   1.417       .  A
C325        C330   1.414       .  A
C326        C327   1.408       .  A
C326        H331   1.082       .  S
C327       C1235   1.487       .  S
C327        C328   1.396       .  A
C328        C329   1.390       .  A
C328        H332   1.084       .  S
C329        C692   1.466       .  S
C329        C330   1.400       .  A
C330        H333   1.082       .  S
C334        C755   1.504       .  S
C334        C335   1.418       .  A
C334        C339   1.421       .  A
C335        C336   1.402       .  A
C335        H340   1.081       .  S
C336       C1175   1.478       .  S
C336        C337   1.390       .  A
C337        C338   1.392       .  A
C337        H341   1.084       .  S
C338        C682   1.483       .  S
C338        C339   1.409       .  A
C339        H342   1.082       .  S
C343        C715   1.493       .  S
C343        C344   1.412   1_655  A
C343        C348   1.415       .  A
C344        C345   1.397       .  A
C344        H349   1.082       .  S
C345        C965   1.474       .  S
C345        C346   1.391   1_455  A
C346        C347   1.396       .  A
C346        H350   1.084       .  S
C347        C672   1.483       .  S
C347        C348   1.408       .  A
C348        H351   1.082       .  S
C352        C775   1.498       .  S
C352        C353   1.418   1_655  A
C352        C357   1.421       .  A
C353        C354   1.397       .  A
C353        H358   1.082       .  S
C354       C1015   1.464       .  S
C354        C355   1.380   1_455  A
C355        C356   1.384       .  A
C355        H359   1.086       .  S
C356        C662   1.475       .  S
C356        C357   1.405       .  A
C357        H360   1.080       .  S
O361       Zr397   2.393       .  S
O361        C372   1.283       .  A
O362       Zr396   2.467       .  S
O362        C373   1.298       .  A
O363       Zr369   2.467   1_556  S
O363        C374   1.298       .  A
O364       Zr369   2.446       .  S
O364        C375   1.295       .  A
O365       Zr399   2.427       .  S
O365        C375   1.289       .  A
O366       Zr398   2.402       .  S
O366        C374   1.285       .  A
O367       Zr369   2.431   1_556  S
O367        C373   1.294       .  A
O368       Zr369   2.469       .  S
O368        C372   1.298       .  A
Zr369       O370   2.340       .  S
Zr369       O371   2.309       .  S
Zr369       O379   2.347       .  S
Zr369       O377   2.363   1_554  S
O370       Zr396   2.345   1_554  S
O370       Zr399   2.304       .  S
O371       Zr397   2.344       .  S
O371       Zr398   2.336   1_554  S
C372       C1125   1.465       .  S
C373        C625   1.481       .  S
C374        C642   1.477       .  S
C375       C1105   1.473       .  S
H376        O377   0.966       .  S
O377       Zr396   2.370       .  S
O377       Zr398   2.309       .  S
H378        O379   0.966       .  S
O379       Zr397   2.335       .  S
O379       Zr399   2.336       .  S
O380       Zr396   2.564       .  S
O380        C403   1.315       .  A
O381       Zr397   2.400       .  S
O381        C404   1.283       .  A
O382       Zr398   2.531       .  S
O382        C405   1.314       .  A
O383       Zr399   2.441       .  S
O383        C406   1.292       .  A
O384       Zr399   2.416       .  S
O384        C407   1.288       .  A
O385       Zr398   2.469       .  S
O385        C408   1.298   1_556  A
O386       Zr400   2.480   1_556  S
O386        C409   1.301       .  A
O387       Zr400   2.503       .  S
O387        C410   1.305       .  A
O388       Zr398   2.372       .  S
O388        C409   1.280       .  A
O389       Zr399   2.380       .  S
O389        C410   1.282       .  A
O390       Zr396   2.435       .  S
O390        C405   1.284       .  A
O391       Zr397   2.440       .  S
O391        C408   1.293       .  A
O392       Zr397   2.483       .  S
O392        C407   1.299       .  A
O393       Zr396   2.434       .  S
O393        C406   1.290   1_556  A
O394       Zr400   2.416   1_556  S
O394        C403   1.280       .  A
O395       Zr400   2.461       .  S
O395        C404   1.296       .  A
Zr396       O402   2.335       .  S
Zr396       O414   2.341   1_556  S
Zr397       O401   2.325       .  S
Zr397       O412   2.342       .  S
Zr398       O402   2.337       .  S
Zr398       O412   2.374   1_556  S
Zr399       O401   2.349       .  S
Zr399       O414   2.347       .  S
Zr400       O401   2.337       .  S
Zr400       O402   2.375   1_554  S
Zr400       O414   2.382       .  S
Zr400       O412   2.346       .  S
C403        C602   1.499       .  S
C404        C675   1.461       .  S
C405        C785   1.530       .  S
C406        C632   1.477       .  S
C407        C615   1.488       .  S
C408        C652   1.489   1_554  S
C409        C665   1.464       .  S
C410        C795   1.471       .  S
H411        O412   0.965       .  S
H413        O414   0.965       .  S
C415        C605   1.482       .  S
C415        C416   1.403       .  A
C415        C420   1.419       .  A
C416        C417   1.394       .  A
C416        H421   1.071       .  S
C417        C885   1.467       .  S
C417        C418   1.385       .  A
C418        C419   1.396       .  A
C418        H422   1.085       .  S
C419        C765   1.482       .  S
C419        C420   1.419       .  A
C420        H423   1.083       .  S
C424        C612   1.502       .  S
C424        C425   1.420       .  A
C424        C429   1.414       .  A
C425        C426   1.405       .  A
C425        H430   1.082       .  S
C426        C825   1.482       .  S
C426        C427   1.392       .  A
C427        C428   1.394       .  A
C427        H431   1.084       .  S
C428        C705   1.486       .  S
C428        C429   1.409       .  A
C429        H432   1.082       .  S
C433        C635   1.482       .  S
C433        C434   1.414       .  A
C433        C438   1.414   1_554  A
C434        C435   1.401       .  A
C434        H439   1.084       .  S
C435       C1142   1.475       .  S
C435        C436   1.391       .  A
C436        C437   1.389   1_554  A
C436        H440   1.086       .  S
C437        C592   1.475       .  S
C437        C438   1.405       .  A
C438        H441   1.083       .  S
C442        C655   1.505       .  S
C442        C443   1.418       .  A
C442        C447   1.419   1_554  A
C443        C444   1.404       .  A
C443        H448   1.083       .  S
C444       C1202   1.471       .  S
C444        C445   1.388       .  A
C445        C446   1.394   1_554  A
C445        H449   1.085       .  S
C446        C582   1.485       .  S
C446        C447   1.409       .  A
C447        H450   1.081       .  S
O451       Zr487   2.416       .  S
O451        C462   1.288       .  A
O452       Zr486   2.419       .  S
O452        C463   1.289       .  A
O453       Zr459   2.469       .  S
O453        C464   1.298       .  A
O454       Zr459   2.469   1_545  S
O454        C465   1.299       .  A
O455       Zr489   2.403       .  S
O455        C465   1.285       .  A
O456       Zr488   2.411       .  S
O456        C464   1.287       .  A
O457       Zr459   2.454       .  S
O457        C463   1.297       .  A
O458       Zr459   2.439   1_545  S
O458        C462   1.293       .  A
Zr459       O460   2.354       .  S
Zr459       O461   2.351       .  S
Zr459       O469   2.332   1_565  S
Zr459       O467   2.332       .  S
O460       Zr486   2.343       .  S
O460       Zr489   2.347   1_565  S
O461       Zr487   2.337   1_565  S
O461       Zr488   2.340       .  S
C462        C915   1.462       .  S
C463        C585   1.480       .  S
C464        C905   1.470       .  S
C465        C595   1.471       .  S
H466        O467   0.965       .  S
O467       Zr486   2.333       .  S
O467       Zr488   2.337       .  S
H468        O469   0.965       .  S
O469       Zr487   2.335       .  S
O469       Zr489   2.339       .  S
O470       Zr486   2.413       .  S
O470        C493   1.286       .  A
O471       Zr487   2.407       .  S
O471        C494   1.285       .  A
O472       Zr488   2.451       .  S
O472        C495   1.295       .  A
O473       Zr489   2.462   1_565  S
O473        C496   1.296       .  A
O474       Zr489   2.459       .  S
O474        C497   1.296       .  A
O475       Zr488   2.442       .  S
O475        C498   1.292       .  A
O476       Zr490   2.467       .  S
O476        C499   1.299       .  A
O477       Zr490   2.463   1_545  S
O477        C500   1.298       .  A
O478       Zr488   2.410       .  S
O478        C499   1.286       .  A
O479       Zr489   2.410       .  S
O479        C500   1.287       .  A
O480       Zr486   2.445       .  S
O480        C495   1.293       .  A
O481       Zr487   2.448   1_565  S
O481        C498   1.294       .  A
O482       Zr487   2.444       .  S
O482        C497   1.294       .  A
O483       Zr486   2.432       .  S
O483        C496   1.292       .  A
O484       Zr490   2.458       .  S
O484        C493   1.296       .  A
O485       Zr490   2.469   1_545  S
O485        C494   1.298       .  A
Zr486       O492   2.341       .  S
Zr486       O504   2.338       .  S
Zr487       O491   2.340       .  S
Zr487       O502   2.338   1_545  S
Zr488       O492   2.341       .  S
Zr488       O502   2.344       .  S
Zr489       O491   2.340       .  S
Zr489       O504   2.331   1_545  S
Zr490       O491   2.349   1_565  S
Zr490       O492   2.358       .  S
Zr490       O504   2.325       .  S
Zr490       O502   2.334       .  S
C493        C695   1.459       .  S
C494        C805   1.466       .  S
C495        C542   1.488       .  S
C496        C572   1.484       .  S
C497        C552   1.490       .  S
C498        C562   1.484       .  S
C499        C685   1.468       .  S
C500        C815   1.475       .  S
H501        O502   0.965       .  S
H503        O504   0.964       .  S
C505        C545   1.505       .  S
C505        C506   1.420       .  A
C505        C510   1.423       .  A
C506        C507   1.402       .  A
C506        H511   1.080       .  S
C507       C1045   1.478       .  S
C507        C508   1.388       .  A
C508        C509   1.388       .  A
C508        H512   1.086       .  S
C509        C645   1.480       .  S
C509        C510   1.408       .  A
C510        H513   1.082       .  S
C514        C555   1.507       .  S
C514        C515   1.422       .  A
C514        C519   1.419       .  A
C515        C516   1.407       .  A
C515        H520   1.080       .  S
C516        C995   1.493       .  S
C516        C517   1.398       .  A
C517        C518   1.396       .  A
C517        H521   1.085       .  S
C518        C622   1.486       .  S
C518        C519   1.404       .  A
C519        H522   1.082       .  S
C523        C565   1.497       .  S
C523        C524   1.414       .  A
C523        C528   1.417       .  A
C524        C525   1.402       .  A
C524        H529   1.082   1_565  S
C525        C845   1.480   1_565  S
C525        C526   1.391       .  A
C526        C527   1.394       .  A
C526        H530   1.084       .  S
C527        C745   1.481       .  S
C527        C528   1.408       .  A
C528        H531   1.082       .  S
C532        C575   1.505       .  S
C532        C533   1.418       .  A
C532        C537   1.421       .  A
C533        C534   1.405       .  A
C533        H538   1.081   1_565  S
C534        C865   1.479   1_565  S
C534        C535   1.391       .  A
C535        C536   1.390       .  A
C535        H539   1.085       .  S
C536        C725   1.479       .  S
C536        C537   1.404       .  A
C537        H540   1.081       .  S
C541        C542   1.404       .  A
C541        C546   1.398       .  A
C541        H547   1.082       .  S
C542        C543   1.406       .  A
C543        C544   1.404       .  A
C543        H548   1.083       .  S
C544        C545   1.411       .  A
C544        H549   1.082       .  S
C545        C546   1.411       .  A
C546        H550   1.080       .  S
C551        C552   1.405       .  A
C551        C556   1.404       .  A
C551        H557   1.083       .  S
C552        C553   1.405       .  A
C553        C554   1.398       .  A
C553        H558   1.082       .  S
C554        C555   1.410       .  A
C554        H559   1.080       .  S
C555        C556   1.413       .  A
C556        H560   1.082       .  S
C561        C562   1.406       .  A
C561        C566   1.404       .  A
C561        H567   1.083       .  S
C562        C563   1.404       .  A
C563        C564   1.396       .  A
C563        H568   1.083   1_565  S
C564        C565   1.409       .  A
C564        H569   1.082   1_565  S
C565        C566   1.409       .  A
C566        H570   1.082       .  S
C571        C572   1.403       .  A
C571        C576   1.405       .  A
C571        H577   1.083   1_565  S
C572        C573   1.405       .  A
C573        C574   1.395       .  A
C573        H578   1.083       .  S
C574        C575   1.409       .  A
C574        H579   1.081       .  S
C575        C576   1.415       .  A
C576        H580   1.081   1_565  S
C581        C582   1.402       .  A
C581        C586   1.402       .  A
C581        H587   1.083       .  S
C582        C583   1.410       .  A
C583        C584   1.391       .  A
C583        H588   1.083       .  S
C584        C585   1.400       .  A
C584        H589   1.083       .  S
C585        C586   1.412       .  A
C586        H590   1.083       .  S
C591        C592   1.399       .  A
C591        C596   1.401       .  A
C591        H597   1.083       .  S
C592        C593   1.409       .  A
C593        C594   1.392       .  A
C593        H598   1.084       .  S
C594        C595   1.398       .  A
C594        H599   1.083       .  S
C595        C596   1.410       .  A
C596        H600   1.083       .  S
C601        C602   1.716       .  A
C601        C606   1.752       .  A
C601        H607   1.079       .  S
C602        C603   1.637       .  A
C603        C604   2.555       .  A
C603        H608   1.078       .  S
C604        C605   1.716       .  A
C604        H609   1.093       .  S
C605        C606   1.732       .  A
C606        H610   1.081       .  S
C611        C612   1.415       .  A
C611        C616   1.410       .  A
C611        H617   1.082       .  S
C612        C613   1.406       .  A
C613        C614   1.395       .  A
C613        H618   1.082       .  S
C614        C615   1.406       .  A
C614        H619   1.084       .  S
C615        C616   1.404       .  A
C616        H620   1.083       .  S
C621        C622   1.406       .  A
C621        C626   1.408       .  A
C621        H627   1.083       .  S
C622        C623   1.405       .  A
C623        C624   1.390       .  A
C623        H628   1.084       .  S
C624        C625   1.403       .  A
C624        H629   1.084       .  S
C625        C626   1.409       .  A
C626        H630   1.083       .  S
C631        C632   1.402       .  A
C631        C636   1.393       .  A
C631        H637   1.079       .  S
C632        C633   1.405   1_554  A
C633        C634   1.406       .  A
C633        H638   1.083       .  S
C634        C635   1.408   1_556  A
C634        H639   1.083       .  S
C635        C636   1.402       .  A
C636        H640   1.084       .  S
C641        C642   1.411       .  A
C641        C646   1.403       .  A
C641        H647   1.083       .  S
C642        C643   1.399       .  A
C643        C644   1.392       .  A
C643        H648   1.083       .  S
C644        C645   1.409       .  A
C644        H649   1.084       .  S
C645        C646   1.400       .  A
C646        H650   1.083       .  S
C651        C652   1.406   1_554  A
C651        C656   1.401       .  A
C651        H657   1.083       .  S
C652        C653   1.405       .  A
C653        C654   1.404       .  A
C653        H658   1.083       .  S
C654        C655   1.412   1_556  A
C654        H659   1.081       .  S
C655        C656   1.410       .  A
C656        H660   1.082       .  S
C661        C662   1.413       .  A
C661        C666   1.386       .  A
C661        H667   1.084       .  S
C662        C663   1.396       .  A
C663        C664   1.394       .  A
C663        H668   1.083       .  S
C664        C665   1.412       .  A
C664        H669   1.079       .  S
C665        C666   1.392       .  A
C666        H670   1.084       .  S
C671        C672   1.406       .  A
C671        C676   1.397       .  A
C671        H677   1.083       .  S
C672        C673   1.409       .  A
C673        C674   1.394       .  A
C673        H678   1.083       .  S
C674        C675   1.398       .  A
C674        H679   1.084       .  S
C675        C676   1.402       .  A
C676        H680   1.084       .  S
C681        C682   1.410       .  A
C681        C686   1.394       .  A
C681        H687   1.083       .  S
C682        C683   1.403       .  A
C683        C684   1.401       .  A
C683        H688   1.083       .  S
C684        C685   1.406       .  A
C684        H689   1.084       .  S
C685        C686   1.397       .  A
C686        H690   1.084       .  S
C691        C692   1.404       .  A
C691        C696   1.397       .  A
C691        H697   1.083       .  S
C692        C693   1.402       .  A
C693        C694   1.396       .  A
C693        H698   1.083       .  S
C694        C695   1.401       .  A
C694        H699   1.084       .  S
C695        C696   1.400       .  A
C696        H700   1.083       .  S
C701        C702   1.404       .  A
C701        C706   1.396       .  A
C701        H707   1.084       .  S
C702        C703   1.399       .  A
C703        C704   1.397       .  A
C703        H708   1.083       .  S
C704        C705   1.412       .  A
C704        H709   1.083       .  S
C705        C706   1.404       .  A
C706        H710   1.083       .  S
C711        C712   1.405       .  A
C711        C716   1.402       .  A
C711        H717   1.083       .  S
C712        C713   1.401   1_655  A
C713        C714   1.393       .  A
C713        H718   1.084       .  S
C714        C715   1.409   1_455  A
C714        H719   1.081       .  S
C715        C716   1.409       .  A
C716        H720   1.082       .  S
C721        C722   1.400       .  A
C721        C726   1.392       .  A
C721        H727   1.083       .  S
C722        C723   1.408       .  A
C723        C724   1.400       .  A
C723        H728   1.083       .  S
C724        C725   1.402       .  A
C724        H729   1.083       .  S
C725        C726   1.407       .  A
C726        H730   1.084       .  S
C731        C732   1.404       .  A
C731        C736   1.402       .  A
C731        H737   1.083       .  S
C732        C733   1.405       .  A
C733        C734   1.396       .  A
C733        H738   1.083       .  S
C734        C735   1.408       .  A
C734        H739   1.082       .  S
C735        C736   1.410       .  A
C736        H740   1.082       .  S
C741        C742   1.406       .  A
C741        C746   1.401       .  A
C741        H747   1.084       .  S
C742        C743   1.396       .  A
C743        C744   1.391       .  A
C743        H748   1.084       .  S
C744        C745   1.410       .  A
C744        H749   1.084       .  S
C745        C746   1.404       .  A
C746        H750   1.083       .  S
C751        C752   1.405       .  A
C751        C756   1.404       .  A
C751        H757   1.083       .  S
C752        C753   1.404       .  A
C753        C754   1.398       .  A
C753        H758   1.083       .  S
C754        C755   1.411       .  A
C754        H759   1.081       .  S
C755        C756   1.412       .  A
C756        H760   1.082       .  S
C761        C762   1.397       .  A
C761        C766   1.399       .  A
C761        H767   1.083       .  S
C762        C763   1.407       .  A
C763        C764   1.402       .  A
C763        H768   1.084       .  S
C764        C765   1.402       .  A
C764        H769   1.083       .  S
C765        C766   1.412       .  A
C766        H770   1.084       .  S
C771        C772   1.404       .  A
C771        C776   1.401       .  A
C771        H777   1.083       .  S
C772        C773   1.402   1_655  A
C773        C774   1.391       .  A
C773        H778   1.082       .  S
C774        C775   1.409   1_455  A
C774        H779   1.081       .  S
C775        C776   1.411       .  A
C776        H780   1.080       .  S
C781        C782   2.669       .  A
C781        C786   1.672       .  A
C781        H787   1.095       .  S
C782        C783   1.771       .  A
C783        C784   1.752       .  A
C783        H788   1.081       .  S
C784        C785   1.754       .  A
C784        H789   1.081       .  S
C785        C786   1.685       .  A
C786        H790   1.075       .  S
C791        C792   1.410       .  A
C791        C796   1.398       .  A
C791        H797   1.083       .  S
C792        C793   1.397       .  A
C793        C794   1.397       .  A
C793        H798   1.083       .  S
C794        C795   1.411       .  A
C794        H799   1.084       .  S
C795        C796   1.397       .  A
C796        H800   1.083       .  S
C801        C802   1.406       .  A
C801        C806   1.398       .  A
C801        H807   1.083       .  S
C802        C803   1.410       .  A
C803        C804   1.398       .  A
C803        H808   1.083       .  S
C804        C805   1.399       .  A
C804        H809   1.084       .  S
C805        C806   1.403       .  A
C806        H810   1.083       .  S
C811        C812   1.401       .  A
C811        C816   1.402       .  A
C811        H817   1.083       .  S
C812        C813   1.408       .  A
C813        C814   1.392       .  A
C813        H818   1.084       .  S
C814        C815   1.399       .  A
C814        H819   1.083       .  S
C815        C816   1.411       .  A
C816        H820   1.083       .  S
C821        C822   1.412       .  A
C821        C826   1.404       .  A
C821        H827   1.083       .  S
C822        C823   1.399       .  A
C823        C824   1.392       .  A
C823        H828   1.083       .  S
C824        C825   1.408       .  A
C824        H829   1.084       .  S
C825        C826   1.401       .  A
C826        H830   1.083       .  S
C831        C832   1.407       .  A
C831        C836   1.404       .  A
C831        H837   1.083       .  S
C832        C833   1.405   1_655  A
C833        C834   1.401       .  A
C833        H838   1.083       .  S
C834        C835   1.411   1_455  A
C834        H839   1.081       .  S
C835        C836   1.411       .  A
C836        H840   1.082       .  S
C841        C842   1.403       .  A
C841        C846   1.397       .  A
C841        H847   1.082       .  S
C842        C843   1.397       .  A
C843        C844   1.392       .  A
C843        H848   1.084       .  S
C844        C845   1.409       .  A
C844        H849   1.083       .  S
C845        C846   1.404       .  A
C846        H850   1.083       .  S
C851        C852   1.405       .  A
C851        C856   1.398       .  A
C851        H857   1.082       .  S
C852        C853   1.405       .  A
C853        C854   1.404       .  A
C853        H858   1.083       .  S
C854        C855   1.411       .  A
C854        H859   1.082       .  S
C855        C856   1.409       .  A
C856        H860   1.081       .  S
C861        C862   1.405       .  A
C861        C866   1.400       .  A
C861        H867   1.079       .  S
C862        C863   1.398       .  A
C863        C864   1.392       .  A
C863        H868   1.084       .  S
C864        C865   1.408       .  A
C864        H869   1.083       .  S
C865        C866   1.402       .  A
C866        H870   1.083       .  S
C871        C872   1.400       .  A
C871        C876   1.405       .  A
C871        H877   1.083       .  S
C872        C873   1.404       .  A
C873        C874   1.392       .  A
C873        H878   1.081       .  S
C874        C875   1.408       .  A
C874        H879   1.079       .  S
C875        C876   1.419       .  A
C876        H880   1.080       .  S
C881        C882   1.401       .  A
C881        C886   1.391       .  A
C881        H887   1.082       .  S
C882        C883   1.397       .  A
C883        C884   1.398       .  A
C883        H888   1.083       .  S
C884        C885   1.408       .  A
C884        H889   1.083       .  S
C885        C886   1.398       .  A
C886        H890   1.083       .  S
C891        C892   1.408   1_455  A
C891        C896   1.412   1_455  A
C891        H897   1.083       .  S
C892        C893   1.415       .  A
C893        C894   1.413       .  A
C893        H898   1.083       .  S
C894        C895   1.410       .  A
C894        H899   1.082       .  S
C895        C896   1.418       .  A
C896        H900   1.081   1_655  S
C901        C902   1.412       .  A
C901        C906   1.398       .  A
C901        H907   1.083       .  S
C902        C903   1.403       .  A
C903        C904   1.398       .  A
C903        H908   1.083       .  S
C904        C905   1.405       .  A
C904        H909   1.081       .  S
C905        C906   1.399       .  A
C906        H910   1.083       .  S
C911        C912   1.407       .  A
C911        C916   1.390       .  A
C911        H917   1.083       .  S
C912        C913   1.403       .  A
C913        C914   1.396       .  A
C913        H918   1.083       .  S
C914        C915   1.404       .  A
C914        H919   1.081       .  S
C915        C916   1.398       .  A
C916        H920   1.084       .  S
C921        C922   1.407       .  A
C921        C926   1.388       .  A
C921        H927   1.083       .  S
C922        C923   1.401       .  A
C923        C924   1.400       .  A
C923        H928   1.083       .  S
C924        C925   1.410       .  A
C924        H929   1.083       .  S
C925        C926   1.399       .  A
C926        H930   1.083       .  S
C931        C932   1.406       .  A
C931        C936   1.400       .  A
C931        H937   1.083       .  S
C932        C933   1.409       .  A
C933        C934   1.396       .  A
C933        H938   1.083       .  S
C934        C935   1.398       .  A
C934        H939   1.084       .  S
C935        C936   1.403       .  A
C936        H940   1.083       .  S
C941        C942   1.401       .  A
C941        C946   1.393       .  A
C941        H947   1.083       .  S
C942        C943   1.409       .  A
C943        C944   1.392       .  A
C943        H948   1.083       .  S
C944        C945   1.396       .  A
C944        H949   1.084       .  S
C945        C946   1.402       .  A
C946        H950   1.081       .  S
C951        C952   1.399       .  A
C951        C956   1.397       .  A
C951        H957   1.083       .  S
C952        C953   1.405       .  A
C953        C954   1.387       .  A
C953        H958   1.084       .  S
C954        C955   1.398       .  A
C954        H959   1.083       .  S
C955        C956   1.408       .  A
C956        H960   1.083       .  S
C961        C962   1.410       .  A
C961        C966   1.399       .  A
C961        H967   1.083       .  S
C962        C963   1.398       .  A
C963        C964   1.387       .  A
C963        H968   1.083       .  S
C964        C965   1.407       .  A
C964        H969   1.084       .  S
C965        C966   1.400       .  A
C966        H970   1.083       .  S
C971        C972   1.395       .  A
C971        C976   1.388       .  A
C971        H977   1.083       .  S
C972        C973   1.413       .  A
C973        C974   1.400       .  A
C973        H978   1.083       .  S
C974        C975   1.398       .  A
C974        H979   1.083       .  S
C975        C976   1.410       .  A
C976        H980   1.083       .  S
C981        C982   1.404       .  A
C981        C986   1.405       .  A
C981        H987   1.083       .  S
C982        C983   1.407       .  A
C983        C984   1.395       .  A
C983        H988   1.083       .  S
C984        C985   1.404       .  A
C984        H989   1.083       .  S
C985        C986   1.411       .  A
C986        H990   1.083       .  S
C991        C992   1.401       .  A
C991        C996   1.388       .  A
C991        H997   1.082       .  S
C992        C993   1.410       .  A
C993        C994   1.410       .  A
C993        H998   1.083       .  S
C994        C995   1.408       .  A
C994        H999   1.083       .  S
C995        C996   1.407       .  A
C996       H1000   1.083       .  S
C1001      C1002   1.407       .  A
C1001      C1006   1.400       .  A
C1001      H1007   1.083       .  S
C1002      C1003   1.403   1_554  A
C1003      C1004   1.394       .  A
C1003      H1008   1.084       .  S
C1004      C1005   1.407   1_556  A
C1004      H1009   1.083       .  S
C1005      C1006   1.405       .  A
C1006      H1010   1.083       .  S
C1011      C1012   1.392       .  A
C1011      C1016   1.387       .  A
C1011      H1017   1.084       .  S
C1012      C1013   1.407       .  A
C1013      C1014   1.394       .  A
C1013      H1018   1.084       .  S
C1014      C1015   1.397       .  A
C1014      H1019   1.083       .  S
C1015      C1016   1.410       .  A
C1016      H1020   1.084       .  S
C1021      C1022   1.410       .  A
C1021      C1026   1.403       .  A
C1021      H1027   1.083       .  S
C1022      C1023   1.411       .  A
C1023      C1024   1.421       .  A
C1023      H1028   1.083       .  S
C1024      C1025   1.419       .  A
C1024      H1029   1.081       .  S
C1025      C1026   1.409       .  A
C1026      H1030   1.077   1_455  S
C1031      C1032   1.403       .  A
C1031      C1036   1.390       .  A
C1031      H1037   1.084       .  S
C1032      C1033   1.401       .  A
C1033      C1034   1.402       .  A
C1033      H1038   1.083       .  S
C1034      C1035   1.411       .  A
C1034      H1039   1.082       .  S
C1035      C1036   1.405       .  A
C1036      H1040   1.082       .  S
C1041      C1042   1.397       .  A
C1041      C1046   1.386       .  A
C1041      H1047   1.084       .  S
C1042      C1043   1.410       .  A
C1043      C1044   1.403       .  A
C1043      H1048   1.083       .  S
C1044      C1045   1.402       .  A
C1044      H1049   1.083       .  S
C1045      C1046   1.408       .  A
C1046      H1050   1.084       .  S
C1051      C1052   1.407   1_556  A
C1051      C1056   1.401       .  A
C1051      H1057   1.083       .  S
C1052      C1053   1.408       .  A
C1053      C1054   1.407       .  A
C1053      H1058   1.083       .  S
C1054      C1055   1.411       .  A
C1054      H1059   1.082       .  S
C1055      C1056   1.409   1_554  A
C1056      H1060   1.082       .  S
C1061      C1062   1.407       .  A
C1061      C1066   1.388       .  A
C1061      H1067   1.083       .  S
C1062      C1063   1.401       .  A
C1063      C1064   1.404       .  A
C1063      H1068   1.083       .  S
C1064      C1065   1.410       .  A
C1064      H1069   1.083       .  S
C1065      C1066   1.397       .  A
C1066      H1070   1.083       .  S
C1071      C1072   1.401       .  A
C1071      C1076   1.401       .  A
C1071      H1077   1.083       .  S
C1072      C1073   1.408       .  A
C1073      C1074   1.387       .  A
C1073      H1078   1.082   1_545  S
C1074      C1075   1.398       .  A
C1074      H1079   1.083       .  S
C1075      C1076   1.411       .  A
C1076      H1080   1.083       .  S
C1081      C1082   1.399       .  A
C1081      C1086   1.394       .  A
C1081      H1087   1.084       .  S
C1082      C1083   1.402       .  A
C1083      C1084   1.399       .  A
C1083      H1088   1.083       .  S
C1084      C1085   1.402       .  A
C1084      H1089   1.083       .  S
C1085      C1086   1.404       .  A
C1086      H1090   1.084       .  S
C1091      C1092   1.408       .  A
C1091      C1096   1.392       .  A
C1091      H1097   1.083   1_545  S
C1092      C1093   1.401       .  A
C1093      C1094   1.400       .  A
C1093      H1098   1.083       .  S
C1094      C1095   1.410       .  A
C1094      H1099   1.083       .  S
C1095      C1096   1.400       .  A
C1096      H1100   1.083       .  S
C1101      C1102   1.411       .  A
C1101      C1106   1.390       .  A
C1101      H1107   1.083       .  S
C1102      C1103   1.405       .  A
C1103      C1104   1.401       .  A
C1103      H1108   1.082       .  S
C1104      C1105   1.407       .  A
C1104      H1109   1.080       .  S
C1105      C1106   1.397       .  A
C1106      H1110   1.084       .  S
C1111      C1112   1.406       .  A
C1111      C1116   1.402       .  A
C1111      H1117   1.083       .  S
C1112      C1113   1.401       .  A
C1113      C1114   1.392       .  A
C1113      H1118   1.082       .  S
C1114      C1115   1.406       .  A
C1114      H1119   1.084       .  S
C1115      C1116   1.404       .  A
C1116      H1120   1.083       .  S
C1121      C1122   1.401       .  A
C1121      C1126   1.398       .  A
C1121      H1127   1.083       .  S
C1122      C1123   1.412       .  A
C1123      C1124   1.392       .  A
C1123      H1128   1.083       .  S
C1124      C1125   1.395       .  A
C1124      H1129   1.084       .  S
C1125      C1126   1.408       .  A
C1126      H1130   1.084       .  S
C1131      C1132   1.410       .  A
C1131      C1136   1.394       .  A
C1131      H1137   1.084       .  S
C1132      C1133   1.401       .  A
C1133      C1134   1.402       .  A
C1133      H1138   1.083       .  S
C1134      C1135   1.408       .  A
C1134      H1139   1.084       .  S
C1135      C1136   1.395       .  A
C1136      H1140   1.083       .  S
C1141      C1142   1.405       .  A
C1141      C1146   1.385       .  A
C1141      H1147   1.084       .  S
C1142      C1143   1.402       .  A
C1143      C1144   1.404       .  A
C1143      H1148   1.083       .  S
C1144      C1145   1.409       .  A
C1144      H1149   1.083       .  S
C1145      C1146   1.397       .  A
C1146      H1150   1.080       .  S
C1151      C1152   1.400       .  A
C1151      C1156   1.392       .  A
C1151      H1157   1.080       .  S
C1152      C1153   1.408       .  A
C1153      C1154   1.401       .  A
C1153      H1158   1.083       .  S
C1154      C1155   1.402       .  A
C1154      H1159   1.083       .  S
C1155      C1156   1.406       .  A
C1156      H1160   1.084       .  S
C1161      C1162   1.405       .  A
C1161      C1166   1.393       .  A
C1161      H1167   1.083       .  S
C1162      C1163   1.403       .  A
C1163      C1164   1.406       .  A
C1163      H1168   1.083       .  S
C1164      C1165   1.414       .  A
C1164      H1169   1.081       .  S
C1165      C1166   1.408       .  A
C1166      H1170   1.082       .  S
C1171      C1172   1.400       .  A
C1171      C1176   1.390       .  A
C1171      H1177   1.083       .  S
C1172      C1173   1.409       .  A
C1173      C1174   1.400       .  A
C1173      H1178   1.083       .  S
C1174      C1175   1.401       .  A
C1174      H1179   1.083       .  S
C1175      C1176   1.407       .  A
C1176      H1180   1.084       .  S
C1181      C1182   1.411       .  A
C1181      C1186   1.404       .  A
C1181      H1187   1.083       .  S
C1182      C1183   1.400       .  A
C1183      C1184   1.386       .  A
C1183      H1188   1.083       .  S
C1184      C1185   1.406       .  A
C1184      H1189   1.083       .  S
C1185      C1186   1.403       .  A
C1186      H1190   1.083       .  S
C1191      C1192   1.406       .  A
C1191      C1196   1.391       .  A
C1191      H1197   1.084       .  S
C1192      C1193   1.404       .  A
C1193      C1194   1.405       .  A
C1193      H1198   1.083   1_565  S
C1194      C1195   1.412       .  A
C1194      H1199   1.082   1_565  S
C1195      C1196   1.406       .  A
C1196      H1200   1.082       .  S
C1201      C1202   1.405       .  A
C1201      C1206   1.400       .  A
C1201      H1207   1.083       .  S
C1202      C1203   1.403       .  A
C1203      C1204   1.396       .  A
C1203      H1208   1.084       .  S
C1204      C1205   1.400       .  A
C1204      H1209   1.084       .  S
C1205      C1206   1.402       .  A
C1206      H1210   1.083       .  S
C1211      C1212   1.399       .  A
C1211      C1216   1.392       .  A
C1211      H1217   1.083       .  S
C1212      C1213   1.411       .  A
C1213      C1214   1.402       .  A
C1213      H1218   1.083       .  S
C1214      C1215   1.400       .  A
C1214      H1219   1.083       .  S
C1215      C1216   1.409       .  A
C1216      H1220   1.084       .  S
C1221      C1222   1.405       .  A
C1221      C1226   1.400       .  A
C1221      H1227   1.083       .  S
C1222      C1223   1.406       .  A
C1223      C1224   1.404       .  A
C1223      H1228   1.083       .  S
C1224      C1225   1.410       .  A
C1224      H1229   1.082       .  S
C1225      C1226   1.411       .  A
C1226      H1230   1.082       .  S
C1231      C1232   1.398       .  A
C1231      C1236   1.393       .  A
C1231      H1237   1.084       .  S
C1232      C1233   1.405       .  A
C1233      C1234   1.399       .  A
C1233      H1238   1.081       .  S
C1234      C1235   1.406       .  A
C1234      H1239   1.083       .  S
C1235      C1236   1.410       .  A
C1236      H1240   1.083       .  S
C1241      C1242   1.398       .  A
C1241      C1246   1.393       .  A
C1241      H1247   1.084       .  S
C1242      C1243   1.402       .  A
C1243      C1244   1.394       .  A
C1243      H1248   1.084       .  S
C1244      C1245   1.405       .  A
C1244      H1249   1.082       .  S
C1245      C1246   1.409       .  A
C1246      H1250   1.083       .  S
C1251      C1252   1.403       .  A
C1251      C1256   1.406       .  A
C1251      H1257   1.083   1_565  S
C1252      C1253   1.404       .  A
C1253      C1254   1.391       .  A
C1253      H1258   1.082       .  S
C1254      C1255   1.404       .  A
C1254      H1259   1.082       .  S
C1255      C1256   1.413       .  A
C1256      H1260   1.082   1_565  S
