geometry optimzed in LAMMPS
_audit_creation_date              2020-12-01 
_audit_creation_method            'lammps2cif' 
_symmetry_space_group_name_H-M    'P1' 
_symmetry_Int_Tables_number       1 
_symmetry_cell_setting            triclinic 
loop_ 
_symmetry_equiv_pos_as_xyz 
  x,y,z 
_cell_length_a                    43.11058096 
_cell_length_b                    43.11925199155357 
_cell_length_c                    25.25414100955012 
_cell_angle_alpha                 90.58774566407797 
_cell_angle_beta                  90.41257661290713 
_cell_angle_gamma                 88.55131648490895 
loop_ 
_atom_site_label 
_atom_site_type_symbol 
_atom_site_fract_x 
_atom_site_fract_y 
_atom_site_fract_z 
_atom_site_charge 
N1          N  0.36746018  0.84408044  0.05789560    -0.36000
N2          N  0.36954627  0.84348133  0.94338266    -0.56600
N3          N  0.37262650  0.91049894  0.94429524    -0.36000
N4          N  0.37257140  0.91111635  0.05833650    -0.56600
C5          C  0.37389207  0.81375202  0.04746294     0.27600
C6          C  0.37636246  0.84972442  0.10852885     0.27600
C7          C  0.38088224  0.90378946  0.89393121     0.27600
C8          C  0.38188481  0.93962264  0.95488659     0.27600
C9          C  0.36172511  0.81377573  0.95144907     0.36200
C10         C  0.36496008  0.84899761  0.89131280     0.36200
C11         C  0.36577054  0.90642419  0.10965818     0.36200
C12         C  0.36760780  0.94166838  0.04941240     0.36200
C13         C  0.38699203  0.79996535  0.09198046    -0.21300
C14         C  0.38849489  0.82264247  0.13053186    -0.21300
C15         C  0.39567541  0.92884310  0.87228414    -0.21300
C16         C  0.39633005  0.95151850  0.91089646    -0.21300
C17         C  0.35186601  0.80040109  0.90426087    -0.22300
C18         C  0.35410773  0.82271680  0.86603093    -0.22300
C19         C  0.35614339  0.93410485  0.13347404    -0.22300
C20         C  0.35732196  0.95650549  0.09518255    -0.22300
C21         C  0.36661081  0.79794589  0.99969245    -0.17700
C22         C  0.37199945  0.87823641  0.13615668    -0.17700
C23         C  0.37529651  0.95644029  0.00180796    -0.17700
C24         C  0.37322973  0.87657882  0.86592364    -0.17700
H25         H  0.39458927  0.77601089  0.09636732     0.15200
H26         H  0.39740967  0.81946123  0.17033078     0.15200
H27         H  0.40466280  0.93074246  0.83255962     0.15200
H28         H  0.40591640  0.97432612  0.90681388     0.15200
H29         H  0.34456089  0.77682982  0.89777090     0.13500
H30         H  0.34893749  0.81978132  0.82430138     0.13500
H31         H  0.34983945  0.93789345  0.17448109     0.13500
H32         H  0.35202854  0.98098545  0.10074483     0.13500
H33         H  0.35462589  0.85915559  0.03381420     0.26800
H34         H  0.35803092  0.89756072  0.96758869     0.26800
N35         N  0.38277202  0.84511153  0.44447206    -0.36000
N36         N  0.38405641  0.84560642  0.55943611    -0.56600
N37         N  0.37744615  0.91307625  0.55861908    -0.36000
N38         N  0.38025619  0.91222741  0.44355770    -0.56600
C39         C  0.39141973  0.81532327  0.45422592     0.27600
C40         C  0.38869316  0.85055217  0.39289077     0.27600
C41         C  0.38302501  0.90808030  0.61067644     0.27600
C42         C  0.38309879  0.94328211  0.54915070     0.27600
C43         C  0.37997053  0.81501594  0.55044382     0.36200
C44         C  0.37643029  0.85091355  0.61058121     0.36200
C45         C  0.37373946  0.90649411  0.39206610     0.36200
C46         C  0.37295811  0.94246785  0.45218423     0.36200
C47         C  0.40312243  0.80166566  0.40834994    -0.21300
C48         C  0.40143161  0.82394807  0.36957976    -0.21300
C49         C  0.39176620  0.93556261  0.63481933    -0.21300
C50         C  0.39214212  0.95770439  0.59590337    -0.21300
C51         C  0.37008069  0.80083919  0.59611998    -0.22300
C52         C  0.36784278  0.82358054  0.63422186    -0.22300
C53         C  0.36217522  0.93317895  0.36798193    -0.22300
C54         C  0.36188784  0.95605021  0.40605508    -0.22300
C55         C  0.38593225  0.79949807  0.50195786    -0.17700
C56         C  0.38033445  0.87810779  0.36569767    -0.17700
C57         C  0.37819864  0.95849543  0.50018689    -0.17700
C58         C  0.37884259  0.87970246  0.63720720    -0.17700
H59         H  0.41133576  0.77791138  0.40310324     0.15200
H60         H  0.40815892  0.82073691  0.32863797     0.15200
H61         H  0.39714610  0.93931726  0.67625753     0.15200
H62         H  0.39786643  0.98180612  0.60164158     0.15200
H63         H  0.36481564  0.77667270  0.60146958     0.13500
H64         H  0.36060543  0.82034140  0.67469790     0.13500
H65         H  0.35505314  0.93602020  0.32710361     0.13500
H66         H  0.35445686  0.97996420  0.40042682     0.13500
H67         H  0.36961590  0.85936692  0.46928116     0.26800
H68         H  0.36713209  0.89767416  0.53266522     0.26800
N69         N  0.38009125  0.20459122  0.05109682    -0.36000
N70         N  0.38123875  0.13729879  0.05302591    -0.56600
N71         N  0.37623540  0.13593395  0.93863257    -0.36000
N72         N  0.37763334  0.20324235  0.93705854    -0.56600
C73         C  0.38970612  0.19927686  0.10133549     0.27600
C74         C  0.38696552  0.23420599  0.03967310     0.27600
C75         C  0.38333562  0.10587248  0.94894903     0.27600
C76         C  0.38330686  0.14092044  0.88735394     0.27600
C77         C  0.37678450  0.14368837  0.10494460     0.36200
C78         C  0.37352296  0.10739736  0.04545294     0.36200
C79         C  0.36997974  0.23339917  0.94605802     0.36200
C80         C  0.36977750  0.19704613  0.88629548     0.36200
C81         C  0.40282048  0.22581597  0.12214377    -0.21300
C82         C  0.40130182  0.24780680  0.08309562    -0.21300
C83         C  0.39483825  0.09147492  0.90358016    -0.21300
C84         C  0.39506918  0.11366972  0.86476220    -0.21300
C85         C  0.36618819  0.11776098  0.13051499    -0.22300
C86         C  0.36403095  0.09475685  0.09274514    -0.22300
C87         C  0.35671180  0.24632846  0.90096977    -0.22300
C88         C  0.35686473  0.22331551  0.86286021    -0.22300
C89         C  0.38449940  0.17193815  0.12999025    -0.17700
C90         C  0.37813322  0.24980974  0.99267134    -0.17700
C91         C  0.37710700  0.16883755  0.85982586    -0.17700
C92         C  0.37751313  0.09083751  0.99729867    -0.17700
H93         H  0.41177940  0.22930333  0.16179295     0.15200
H94         H  0.40920092  0.27135803  0.08678812     0.15200
H95         H  0.40177776  0.06734632  0.89867547     0.15200
H96         H  0.40242833  0.10996066  0.82425713     0.15200
H97         H  0.36087420  0.11556023  0.17210704     0.13500
H98         H  0.35671413  0.07131120  0.09951410     0.13500
H99         H  0.34862836  0.27005849  0.89561291     0.13500
H100        H  0.34887364  0.22573508  0.82234867     0.13500
H101        H  0.36604911  0.19022920  0.02850342     0.26800
H102        H  0.36383675  0.15109562  0.96337223     0.26800
N103        N  0.38509477  0.20582863  0.43912144    -0.36000
N104        N  0.38425964  0.20565474  0.55385681    -0.56600
N105        N  0.38148860  0.13851203  0.55087651    -0.36000
N106        N  0.38519301  0.13844165  0.43653245    -0.56600
C107        C  0.39339738  0.23524488  0.45058743     0.27600
C108        C  0.39319105  0.19975165  0.38832469     0.27600
C109        C  0.38768351  0.14389334  0.60266085     0.27600
C110        C  0.38885185  0.10837891  0.54084873     0.27600
C111        C  0.37795617  0.23600743  0.54482584     0.36200
C112        C  0.37538204  0.20021863  0.60405356     0.36200
C113        C  0.37973581  0.14414068  0.38477657     0.36200
C114        C  0.37850058  0.10837854  0.44424065     0.36200
C115        C  0.40722509  0.24791280  0.40662702    -0.21300
C116        C  0.40697367  0.22554120  0.36723939    -0.21300
C117        C  0.39933498  0.11694573  0.62576098    -0.21300
C118        C  0.39987609  0.09445687  0.58677197    -0.21300
C119        C  0.36483259  0.24985708  0.58942073    -0.22300
C120        C  0.36334831  0.22717666  0.62707910    -0.22300
C121        C  0.36954713  0.11754623  0.35942561    -0.22300
C122        C  0.36884232  0.09482976  0.39716415    -0.22300
C123        C  0.38617893  0.25159383  0.49812678    -0.17700
C124        C  0.38622831  0.17235885  0.35963849    -0.17700
C125        C  0.38340992  0.09263187  0.49246680    -0.17700
C126        C  0.38025010  0.17172606  0.63027300    -0.17700
H127        H  0.41604126  0.27106855  0.40297132     0.15200
H128        H  0.41556796  0.22810265  0.32739351     0.15200
H129        H  0.40606207  0.11363509  0.66672679     0.15200
H130        H  0.40712039  0.07045104  0.59185141     0.15200
H131        H  0.35740542  0.27385103  0.59453816     0.13500
H132        H  0.35461106  0.23021757  0.66691536     0.13500
H133        H  0.36364784  0.11467210  0.31796724     0.13500
H134        H  0.36235363  0.07100672  0.39059203     0.13500
H135        H  0.37110904  0.19213796  0.46221917     0.26800
H136        H  0.36914892  0.15339063  0.52578676     0.26800
N137        N  0.77165822  0.59883965  0.05784518    -0.36000
N138        N  0.83887726  0.59302964  0.05852052    -0.56600
N139        N  0.83921653  0.59892087  0.94389662    -0.36000
N140        N  0.77179572  0.60147105  0.94302269    -0.56600
C141        C  0.77696208  0.58890672  0.10802584     0.27600
C142        C  0.74126534  0.59416753  0.04681310     0.27600
C143        C  0.86913926  0.58987635  0.95312146     0.27600
C144        C  0.83345468  0.59383856  0.89164104     0.27600
C145        C  0.83375298  0.59727034  0.11087905     0.36200
C146        C  0.86940856  0.59762019  0.05085082     0.36200
C147        C  0.74159151  0.60880685  0.95186926     0.36200
C148        C  0.77715226  0.60804301  0.89172403     0.36200
C149        C  0.74967015  0.57810345  0.12896808    -0.21300
C150        C  0.72716478  0.58150940  0.09045256    -0.21300
C151        C  0.88256925  0.57953728  0.90625424    -0.21300
C152        C  0.86005866  0.58194148  0.86753578    -0.21300
C153        C  0.86113269  0.60479215  0.13653138    -0.22300
C154        C  0.88375061  0.60490476  0.09851212    -0.22300
C155        C  0.72778777  0.62028848  0.90610351    -0.22300
C156        C  0.75029851  0.61969179  0.86794185    -0.22300
C157        C  0.80538262  0.59129350  0.13624693    -0.17700
C158        C  0.72572893  0.60265255  0.99926781    -0.17700
C159        C  0.80519616  0.60116818  0.86495273    -0.17700
C160        C  0.88493242  0.59231517  0.00233017    -0.17700
H161        H  0.74615626  0.56898873  0.16816711     0.15200
H162        H  0.70308198  0.57549032  0.09436585     0.15200
H163        H  0.90620367  0.57124071  0.90038462     0.15200
H164        H  0.86309998  0.57578722  0.82622474     0.15200
H165        H  0.86460089  0.60907126  0.17842994     0.13500
H166        H  0.90807225  0.60928017  0.10533005     0.13500
H167        H  0.70385812  0.62779854  0.90049237     0.13500
H168        H  0.74716479  0.62665949  0.82715973     0.13500
H169        H  0.78651622  0.61095248  0.03533898     0.26800
H170        H  0.82506444  0.61049288  0.96971690     0.26800
N171        N  0.77214496  0.58194351  0.55729870    -0.36000
N172        N  0.77302451  0.57945354  0.44299697    -0.56600
N173        N  0.83982396  0.58339883  0.44418723    -0.36000
N174        N  0.83923435  0.58784923  0.55847506    -0.56600
C175        C  0.74233543  0.58965647  0.54484752     0.27600
C176        C  0.77768279  0.59288119  0.60681532     0.27600
C177        C  0.83318648  0.58995183  0.39303177     0.27600
C178        C  0.86845640  0.59410528  0.45463454     0.27600
C179        C  0.74332407  0.57184826  0.45162122     0.36200
C180        C  0.77912106  0.57215283  0.39197104     0.36200
C181        C  0.83416849  0.58205687  0.61010771     0.36200
C182        C  0.86990650  0.58282667  0.55034225     0.36200
C183        C  0.72892963  0.60593368  0.58689528    -0.21300
C184        C  0.75116653  0.60770832  0.62618166    -0.21300
C185        C  0.85784569  0.60504006  0.37068964    -0.21300
C186        C  0.88013900  0.60768467  0.40965460    -0.21300
C187        C  0.73066644  0.55885336  0.40614397    -0.22300
C188        C  0.75337518  0.55921403  0.36814436    -0.22300
C189        C  0.86166824  0.57299690  0.63489542    -0.22300
C190        C  0.88435490  0.57338617  0.59689154    -0.22300
C191        C  0.72672445  0.58077257  0.49757513    -0.17700
C192        C  0.80562347  0.58813711  0.63569745    -0.17700
C193        C  0.88507374  0.58956094  0.50251259    -0.17700
C194        C  0.80616810  0.58097098  0.36550155    -0.17700
H195        H  0.70549240  0.61539396  0.58929962     0.15200
H196        H  0.74817695  0.61868259  0.66460624     0.15200
H197        H  0.85972343  0.61302632  0.33037389     0.15200
H198        H  0.90255010  0.61807888  0.40519937     0.15200
H199        H  0.70719723  0.55106908  0.40038674     0.13500
H200        H  0.75092162  0.55182519  0.32726409     0.13500
H201        H  0.86510654  0.56728725  0.67619686     0.13500
H202        H  0.90875577  0.56799297  0.60309483     0.13500
H203        H  0.78690139  0.56720194  0.53560970     0.26800
H204        H  0.82713966  0.56921106  0.46864873     0.26800
N205        N  0.13247592  0.59105879  0.06458314    -0.36000
N206        N  0.13181221  0.58961709  0.94997724    -0.56600
N207        N  0.06478295  0.58708314  0.95143264    -0.36000
N208        N  0.06539985  0.58563512  0.06609070    -0.56600
C209        C  0.16260309  0.58412084  0.05392003     0.27600
C210        C  0.12743240  0.58313684  0.11542178     0.27600
C211        C  0.07051202  0.58055226  0.89991377     0.27600
C212        C  0.03553784  0.57832291  0.96138260     0.27600
C213        C  0.16142644  0.59786321  0.95904389     0.36200
C214        C  0.12534664  0.59642858  0.89891252     0.36200
C215        C  0.07066381  0.59314411  0.11736859     0.36200
C216        C  0.03470460  0.59050002  0.05743355     0.36200
C217        C  0.17676569  0.57130922  0.09839076    -0.21300
C218        C  0.15456739  0.57080161  0.13730984    -0.21300
C219        C  0.04468126  0.56723301  0.87687953    -0.21300
C220        C  0.02252148  0.56590358  0.91575214    -0.21300
C221        C  0.17378473  0.61021633  0.91354438    -0.22300
C222        C  0.15095284  0.60910857  0.87529877    -0.22300
C223        C  0.04318116  0.60267658  0.14144107    -0.22300
C224        C  0.02033927  0.60088742  0.10343200    -0.22300
C225        C  0.17799487  0.59151806  0.00648199    -0.17700
C226        C  0.09957101  0.58911517  0.14338961    -0.17700
C227        C  0.01941622  0.58441660  0.00899016    -0.17700
C228        C  0.09750875  0.58875355  0.87251098    -0.17700
H229        H  0.20072796  0.56358519  0.10265000     0.15200
H230        H  0.15808374  0.56264196  0.17735239     0.15200
H231        H  0.04185447  0.55988393  0.83605126     0.15200
H232        H  0.99924835  0.55742376  0.91075945     0.15200
H233        H  0.19698912  0.61858380  0.90813248     0.13500
H234        H  0.15307422  0.61640043  0.83462923     0.13500
H235        H  0.03986638  0.60993713  0.18219927     0.13500
H236        H  0.99597636  0.60655971  0.10903650     0.13500
H237        H  0.11729548  0.60407431  0.04090380     0.26800
H238        H  0.07838342  0.60060598  0.97626283     0.26800
N239        N  0.13439423  0.59576037  0.45322543    -0.36000
N240        N  0.13295444  0.59441767  0.56736719    -0.56600
N241        N  0.06513229  0.59384882  0.56278230    -0.36000
N242        N  0.06688959  0.59207059  0.44872294    -0.56600
C243        C  0.16462974  0.58971050  0.46484501     0.27600
C244        C  0.12976393  0.58767803  0.40191896     0.27600
C245        C  0.07040433  0.58699548  0.61425773     0.27600
C246        C  0.03556678  0.58611682  0.55110962     0.27600
C247        C  0.16283170  0.60234797  0.56059664     0.36200
C248        C  0.12619560  0.60039227  0.61868540     0.36200
C249        C  0.07328447  0.59970247  0.39835148     0.36200
C250        C  0.03649028  0.59907117  0.45607367     0.36200
C251        C  0.17938916  0.57745908  0.42043755    -0.21300
C252        C  0.15743846  0.57637296  0.38063226    -0.21300
C253        C  0.04379996  0.57495517  0.63570609    -0.21300
C254        C  0.02188573  0.57425175  0.59583899    -0.21300
C255        C  0.17504266  0.61346464  0.60781718    -0.22300
C256        C  0.15188892  0.61202307  0.64470726    -0.22300
C257        C  0.04690480  0.61177994  0.37360700    -0.22300
C258        C  0.02359920  0.61161224  0.41042249    -0.22300
C259        C  0.17959946  0.59768887  0.51306848    -0.17700
C260        C  0.10177823  0.59271390  0.37317294    -0.17700
C261        C  0.02004833  0.59201133  0.50237977    -0.17700
C262        C  0.09781820  0.59353408  0.64314803    -0.17700
H263        H  0.20363660  0.57072618  0.41670130     0.15200
H264        H  0.16168823  0.56894045  0.34024653     0.15200
H265        H  0.04030252  0.56800741  0.67620853     0.15200
H266        H  0.99833134  0.56657005  0.59976609     0.15200
H267        H  0.19824801  0.62155973  0.61514430     0.13500
H268        H  0.15376018  0.61874077  0.68599977     0.13500
H269        H  0.04462999  0.61947452  0.33307118     0.13500
H270        H  0.99979090  0.61931945  0.40406050     0.13500
H271        H  0.11882267  0.60837700  0.47681046     0.26800
H272        H  0.07960945  0.60658566  0.53902393     0.26800
N273        N  0.52987536  0.20567789  0.05981672    -0.36000
N274        N  0.52994059  0.20444019  0.94520348    -0.56600
N275        N  0.52679282  0.13736675  0.94667802    -0.36000
N276        N  0.52980432  0.13835902  0.06142300    -0.56600
C277        C  0.53800902  0.23500581  0.04882811     0.27600
C278        C  0.53866205  0.19996398  0.11037582     0.27600
C279        C  0.53396594  0.14202296  0.89534606     0.27600
C280        C  0.53261433  0.10704520  0.95686362     0.27600
C281        C  0.52417772  0.23501305  0.95357495     0.36200
C282        C  0.52332244  0.19882173  0.89372840     0.36200
C283        C  0.52499224  0.14450374  0.11331417     0.36200
C284        C  0.52260668  0.10834111  0.05349007     0.36200
C285        C  0.55218566  0.24809509  0.09282574    -0.21300
C286        C  0.55280162  0.22586297  0.13161426    -0.21300
C287        C  0.54449047  0.11430415  0.87266854    -0.21300
C288        C  0.54345147  0.09216625  0.91146485    -0.21300
C289        C  0.51374210  0.24891866  0.90731477    -0.22300
C290        C  0.51318857  0.22593077  0.86929464    -0.22300
C291        C  0.51483284  0.11821736  0.13847743    -0.22300
C292        C  0.51334490  0.09527390  0.10051532    -0.22300
C293        C  0.53090576  0.25078873  0.00129652    -0.17700
C294        C  0.53198885  0.17284854  0.13877307    -0.17700
C295        C  0.52624373  0.09214239  0.00501888    -0.17700
C296        C  0.52908390  0.17012918  0.86771513    -0.17700
H297        H  0.56088188  0.27134222  0.09672331     0.15200
H298        H  0.56200409  0.22866568  0.17131790     0.15200
H299        H  0.55167454  0.11030613  0.83214190     0.15200
H300        H  0.54968925  0.06782887  0.90668907     0.15200
H301        H  0.50766363  0.27314900  0.90138976     0.13500
H302        H  0.50656590  0.22891320  0.82820266     0.13500
H303        H  0.50925589  0.11573753  0.17991118     0.13500
H304        H  0.50649277  0.07163212  0.10688667     0.13500
H305        H  0.51567479  0.19185101  0.03650425     0.26800
H306        H  0.51503672  0.15299330  0.97144807     0.26800
N307        N  0.53351837  0.20520569  0.44709411    -0.36000
N308        N  0.53260877  0.20540092  0.56128842    -0.56600
N309        N  0.52747680  0.13826876  0.55884493    -0.36000
N310        N  0.53115121  0.13770275  0.44482039    -0.56600
C311        C  0.54147282  0.23476651  0.45772032     0.27600
C312        C  0.54166217  0.19893888  0.39647840     0.27600
C313        C  0.53498091  0.14346697  0.61019771     0.27600
C314        C  0.53318170  0.10779582  0.54852931     0.27600
C315        C  0.52817463  0.23610647  0.55297217     0.36200
C316        C  0.52551756  0.20049017  0.61245749     0.36200
C317        C  0.52616240  0.14388631  0.39308316     0.36200
C318        C  0.52179480  0.10840532  0.45249959     0.36200
C319        C  0.55479004  0.24747733  0.41339999    -0.21300
C320        C  0.55505210  0.22478116  0.37474403    -0.21300
C321        C  0.54588531  0.11602319  0.63268248    -0.21300
C322        C  0.54470053  0.09347699  0.59372542    -0.21300
C323        C  0.51837015  0.25085845  0.59910710    -0.22300
C324        C  0.51657672  0.22823873  0.63684162    -0.22300
C325        C  0.51367694  0.11839259  0.36765070    -0.22300
C326        C  0.51083595  0.09590677  0.40536469    -0.22300
C327        C  0.53504368  0.25111463  0.50520811    -0.17700
C328        C  0.53459772  0.17158467  0.36810485    -0.17700
C329        C  0.52525145  0.09231045  0.50080472    -0.17700
C330        C  0.52948702  0.17168273  0.63816911    -0.17700
H331        H  0.56311067  0.27079195  0.40918098     0.15200
H332        H  0.56352182  0.22725387  0.33480321     0.15200
H333        H  0.55323620  0.11245595  0.67328198     0.15200
H334        H  0.55092340  0.06918241  0.59844004     0.15200
H335        H  0.51334194  0.27536244  0.60505560     0.13500
H336        H  0.50985309  0.23188189  0.67768641     0.13500
H337        H  0.50742208  0.11617549  0.32622372     0.13500
H338        H  0.50199859  0.07292174  0.39865736     0.13500
H339        H  0.51974117  0.19155235  0.47057247     0.26800
H340        H  0.51516666  0.15358969  0.53447399     0.26800
N341        N  0.51404125  0.84553214  0.05484171    -0.36000
N342        N  0.51668005  0.84494065  0.94042389    -0.56600
N343        N  0.51509884  0.91240659  0.94064839    -0.36000
N344        N  0.51546095  0.91280860  0.05542552    -0.56600
C345        C  0.52361165  0.81589126  0.04495283     0.27600
C346        C  0.52105526  0.85193159  0.10602550     0.27600
C347        C  0.52167446  0.90624904  0.88929952     0.27600
C348        C  0.52275385  0.94216789  0.95051194     0.27600
C349        C  0.51116779  0.81469781  0.94921117     0.36200
C350        C  0.51039691  0.84998957  0.88870198     0.36200
C351        C  0.50799258  0.90815985  0.10654272     0.36200
C352        C  0.51111597  0.94347041  0.04666732     0.36200
C353        C  0.53706567  0.80345154  0.09033300    -0.21300
C354        C  0.53531408  0.82616454  0.12895199    -0.21300
C355        C  0.53333017  0.93249304  0.86604507    -0.21300
C356        C  0.53404505  0.95517533  0.90474472    -0.21300
C357        C  0.50101146  0.80053337  0.90295617    -0.22300
C358        C  0.50081721  0.82283676  0.86449286    -0.22300
C359        C  0.49859049  0.93599351  0.13017932    -0.22300
C360        C  0.50104687  0.95843948  0.09242367    -0.22300
C361        C  0.51848264  0.79929815  0.99708895    -0.17700
C362        C  0.51292901  0.87977352  0.13324238    -0.17700
C363        C  0.51802602  0.95836203  0.99883437    -0.17700
C364        C  0.51577726  0.87809622  0.86230253    -0.17700
H365        H  0.54684418  0.78029887  0.09535160     0.15200
H366        H  0.54342071  0.82390510  0.16942379     0.15200
H367        H  0.54043700  0.93508694  0.82534218     0.15200
H368        H  0.54172028  0.97865770  0.89962173     0.15200
H369        H  0.49515815  0.77647293  0.89717328     0.13500
H370        H  0.49485731  0.81932813  0.82321959     0.13500
H371        H  0.49142662  0.93992135  0.17072201     0.13500
H372        H  0.49601729  0.98297321  0.09798778     0.13500
H373        H  0.50017675  0.85935930  0.03020448     0.26800
H374        H  0.50290140  0.89819649  0.96566733     0.26800
N375        N  0.51267457  0.84502129  0.43966236    -0.36000
N376        N  0.51569749  0.84417423  0.55380233    -0.56600
N377        N  0.51235002  0.91164370  0.55653786    -0.36000
N378        N  0.51155519  0.91247897  0.44254088    -0.56600
C379        C  0.52314936  0.81565092  0.44853444     0.27600
C380        C  0.51985983  0.85191923  0.38920192     0.27600
C381        C  0.52051411  0.90500261  0.60700642     0.27600
C382        C  0.51995726  0.94141424  0.54773776     0.27600
C383        C  0.51017638  0.81401622  0.54338646     0.36200
C384        C  0.50866081  0.84909615  0.60523636     0.36200
C385        C  0.50390081  0.90748058  0.39128603     0.36200
C386        C  0.50530068  0.94278925  0.45287996     0.36200
C387        C  0.53726630  0.80381868  0.40320671    -0.21300
C388        C  0.53506686  0.82668611  0.36564712    -0.21300
C389        C  0.53330643  0.93086427  0.63082838    -0.21300
C390        C  0.53312453  0.95383121  0.59327937    -0.21300
C391        C  0.49921863  0.79976673  0.58824903    -0.22300
C392        C  0.49834511  0.82203737  0.62760257    -0.22300
C393        C  0.49221258  0.93467389  0.36904842    -0.22300
C394        C  0.49326555  0.95713800  0.40810303    -0.22300
C395        C  0.51831370  0.79882483  0.49546905    -0.17700
C396        C  0.51133974  0.87977674  0.36321773    -0.17700
C397        C  0.51347017  0.95798991  0.50065157    -0.17700
C398        C  0.51420934  0.87698730  0.63299275    -0.17700
H399        H  0.54782915  0.78100176  0.39756548     0.15200
H400        H  0.54361685  0.82489525  0.32551116     0.15200
H401        H  0.54159395  0.93303940  0.67122353     0.15200
H402        H  0.54134078  0.97713344  0.59915114     0.15200
H403        H  0.49319211  0.77570757  0.59246815     0.13500
H404        H  0.49147286  0.81858118  0.66821504     0.13500
H405        H  0.48477156  0.93819425  0.32848068     0.13500
H406        H  0.48663915  0.98136467  0.40376411     0.13500
H407        H  0.49834388  0.85834848  0.46447040     0.26800
H408        H  0.49899205  0.89777518  0.53183552     0.26800
O409        O  0.33080243  0.44671580  0.95540276    -0.72300
O410        O  0.42373458  0.44545150  0.95851480    -0.73300
O411        O  0.37765667  0.39958760  0.95498683    -0.61900
O412        O  0.37661259  0.49255573  0.95895033    -0.70300
O413        O  0.37733592  0.49233411  0.04689405    -0.69900
O414        O  0.37565639  0.39899815  0.04270912    -0.61100
O415        O  0.42367791  0.44401337  0.04635973    -0.73700
O416        O  0.33007733  0.44811837  0.04331286    -0.72400
Cu417      Cu  0.37727180  0.44608055  0.95399604     1.04600
Cu418      Cu  0.37672321  0.44575375  0.04798747     1.04300
C419        C  0.31578655  0.44815618  0.99878011     0.93900
C420        C  0.43841315  0.44467421  0.00262428     0.93000
C421        C  0.37620362  0.38456325  0.99817979     0.85200
C422        C  0.37665951  0.50709582  0.00328189     0.91400
O423        O  0.38014578  0.40091208  0.54722967    -0.72300
O424        O  0.37838404  0.49451389  0.55008533    -0.73300
O425        O  0.33250483  0.44853807  0.54949607    -0.61900
O426        O  0.42581015  0.44723256  0.54829154    -0.70300
O427        O  0.42490717  0.44658730  0.46036275    -0.69900
O428        O  0.33183616  0.45021189  0.46169189    -0.61100
O429        O  0.37847566  0.49459588  0.46215655    -0.73700
O430        O  0.37784287  0.40154097  0.45949575    -0.72400
Cu431      Cu  0.37922781  0.44772147  0.55189474     1.04600
Cu432      Cu  0.37825722  0.44816732  0.45791893     1.04300
C433        C  0.37928835  0.38645227  0.50276963     0.93900
C434        C  0.37798728  0.50922867  0.50637064     0.93000
C435        C  0.31748916  0.45062034  0.50578411     0.85200
C436        C  0.44003099  0.44667535  0.50407726     0.91400
O437        O  0.37233529  0.64934576  0.04724065    -0.72300
O438        O  0.37556908  0.55602729  0.04774018    -0.73300
O439        O  0.42057731  0.60302985  0.04594125    -0.61900
O440        O  0.32731431  0.60237088  0.04877591    -0.70300
O441        O  0.32637878  0.60134545  0.96091994    -0.69900
O442        O  0.41943277  0.60220057  0.95799497    -0.61100
O443        O  0.37454630  0.55550180  0.95979442    -0.73700
O444        O  0.37191080  0.64847722  0.95932459    -0.72400
Cu445      Cu  0.37399118  0.60273960  0.05054801     1.04600
Cu446      Cu  0.37297525  0.60190192  0.95649483     1.04300
C447        C  0.37197448  0.66359209  0.00310812     0.93900
C448        C  0.37561668  0.54111439  0.00373783     0.93000
C449        C  0.43464498  0.60265004  0.00153155     0.85200
C450        C  0.31212458  0.60150120  0.00514598     0.91400
O451        O  0.42329200  0.60421115  0.54590096    -0.72300
O452        O  0.33014492  0.60530482  0.55255555    -0.73300
O453        O  0.37747012  0.55833019  0.55035035    -0.61900
O454        O  0.37737787  0.65172853  0.54790350    -0.70300
O455        O  0.37393487  0.65070049  0.46013154    -0.69900
O456        O  0.37514572  0.55759506  0.46247629    -0.61100
O457        O  0.32762419  0.60454874  0.46476491    -0.73700
O458        O  0.42079018  0.60363634  0.45800608    -0.72400
Cu459      Cu  0.37701299  0.60501260  0.55229332     1.04600
Cu460      Cu  0.37417637  0.60411088  0.45833366     1.04300
C461        C  0.43665464  0.60381723  0.50092339     0.93900
C462        C  0.31417702  0.60434040  0.50970203     0.93000
C463        C  0.37681794  0.54329257  0.50651585     0.85200
C464        C  0.37675501  0.66582557  0.50356421     0.91400
O465        O  0.53628209  0.40015269  0.04439189    -0.72300
O466        O  0.53330392  0.49320335  0.04180066    -0.73300
O467        O  0.48800294  0.44603561  0.04564490    -0.61900
O468        O  0.58176001  0.44763657  0.03855316    -0.70300
O469        O  0.57904659  0.44627109  0.95094327    -0.69900
O470        O  0.48646643  0.44443319  0.95777803    -0.61100
O471        O  0.53096876  0.49220834  0.95396162    -0.73700
O472        O  0.53508453  0.39852434  0.95648615    -0.72400
Cu473      Cu  0.53496371  0.44674979  0.04568385     1.04600
Cu474      Cu  0.53277854  0.44526942  0.95176933     1.04300
C475        C  0.53597104  0.38467024  0.00105340     0.93900
C476        C  0.53188061  0.50741050  0.99772195     0.93000
C477        C  0.47254372  0.44494576  0.00225268     0.85200
C478        C  0.59511905  0.44764626  0.99338745     0.91400
O479        O  0.53555084  0.39897224  0.46008336    -0.72300
O480        O  0.53325933  0.49220086  0.45584422    -0.73300
O481        O  0.58131316  0.44640690  0.45653819    -0.61900
O482        O  0.48816283  0.44560628  0.45903673    -0.70300
O483        O  0.48935544  0.44694617  0.54695935    -0.69900
O484        O  0.58266406  0.44746927  0.54445013    -0.61100
O485        O  0.53455522  0.49377199  0.54376296    -0.73700
O486        O  0.53754302  0.40054385  0.54798412    -0.72400
Cu487      Cu  0.53460485  0.44565349  0.45480460     1.04600
Cu488      Cu  0.53609594  0.44722417  0.54885747     1.04300
C489        C  0.53639932  0.38510754  0.50462108     0.93900
C490        C  0.53345413  0.50763635  0.49927508     0.93000
C491        C  0.59664262  0.44754517  0.50000681     0.85200
C492        C  0.47409272  0.44635210  0.50337667     0.91400
O493        O  0.53230477  0.55648636  0.04171951    -0.72300
O494        O  0.52754291  0.64995772  0.04279352    -0.73300
O495        O  0.48385794  0.60230768  0.04399326    -0.61900
O496        O  0.57682960  0.60438719  0.04145663    -0.70300
O497        O  0.57606483  0.60195380  0.95365358    -0.69900
O498        O  0.48269843  0.60309356  0.95607808    -0.61100
O499        O  0.52844605  0.64942952  0.95496895    -0.73700
O500        O  0.53000012  0.55602407  0.95386686    -0.72400
Cu501      Cu  0.53026118  0.60327898  0.04554339     1.04600
Cu502      Cu  0.52930840  0.60265449  0.95156262     1.04300
C503        C  0.53137192  0.54154871  0.99771647     0.93900
C504        C  0.52688656  0.66443289  0.99884970     0.93000
C505        C  0.46863696  0.60269072  0.00046416     0.85200
C506        C  0.59117475  0.60298487  0.99735780     0.91400
O507        O  0.53236960  0.65029866  0.53762980    -0.72300
O508        O  0.53268553  0.55710261  0.54146041    -0.73300
O509        O  0.57892120  0.60188536  0.53751329    -0.61900
O510        O  0.48618851  0.60472518  0.54188947    -0.70300
O511        O  0.48424063  0.60232337  0.45402916    -0.69900
O512        O  0.57759138  0.60150105  0.44968683    -0.61100
O513        O  0.53182791  0.55550729  0.45353460    -0.73700
O514        O  0.52936259  0.64869952  0.44994443    -0.72400
Cu515      Cu  0.53263492  0.60367266  0.54263625     1.04600
Cu516      Cu  0.53074524  0.60203316  0.44868619     1.04300
C517        C  0.52995686  0.66424226  0.49327930     0.93900
C518        C  0.53256355  0.54165326  0.49803291     0.93000
C519        C  0.59296671  0.60044385  0.49316288     0.85200
C520        C  0.47059428  0.60362211  0.49877070     0.91400
N521        N  0.13523289  0.44879291  0.93798183    -0.36000
N522        N  0.13643654  0.45122112  0.05248090    -0.56600
N523        N  0.06919745  0.45069929  0.05311786    -0.36000
N524        N  0.06789270  0.45136365  0.93859224    -0.56600
C525        C  0.16530369  0.45545264  0.94719797     0.27600
C526        C  0.12901107  0.45532160  0.88669791     0.27600
C527        C  0.07560346  0.45884051  0.10378131     0.27600
C528        C  0.03926250  0.45900694  0.04336213     0.27600
C529        C  0.16656786  0.44404782  0.04312201     0.36200
C530        C  0.13158699  0.44478079  0.10389353     0.36200
C531        C  0.07278825  0.44444501  0.88702292     0.36200
C532        C  0.03798277  0.44490632  0.94820365     0.36200
C533        C  0.17838104  0.46632324  0.90116803    -0.21300
C534        C  0.15552496  0.46599761  0.86285639    -0.21300
C535        C  0.04950119  0.47273999  0.12652278    -0.21300
C536        C  0.02651805  0.47291147  0.08824741    -0.21300
C537        C  0.18092094  0.43301598  0.08871377    -0.22300
C538        C  0.15869793  0.43343343  0.12728732    -0.22300
C539        C  0.04592775  0.43363908  0.86364640    -0.22300
C540        C  0.02388744  0.43369215  0.90257179    -0.22300
C541        C  0.18168902  0.44947725  0.99491490    -0.17700
C542        C  0.10068288  0.44962811  0.86015397    -0.17700
C543        C  0.02274695  0.45167032  0.99644391    -0.17700
C544        C  0.10364955  0.45151757  0.13076374    -0.17700
H545        H  0.20209944  0.47314895  0.89544922     0.15200
H546        H  0.15823995  0.47248010  0.82190477     0.15200
H547        H  0.04712842  0.48133220  0.16675311     0.15200
H548        H  0.00294889  0.48165374  0.09321807     0.15200
H549        H  0.20493142  0.42563416  0.09376242     0.13500
H550        H  0.16220681  0.42650543  0.16800531     0.13500
H551        H  0.04256237  0.42655502  0.82280818     0.13500
H552        H  0.00011188  0.42667555  0.89758227     0.13500
H553        H  0.12092866  0.43686905  0.96325920     0.26800
H554        H  0.08315130  0.43657351  0.02899272     0.26800
N555        N  0.13799204  0.45562149  0.44028743    -0.36000
N556        N  0.07094496  0.44926587  0.43683575    -0.56600
N557        N  0.06997529  0.44999286  0.55131008    -0.36000
N558        N  0.13670297  0.45386876  0.55492888    -0.56600
C559        C  0.13311313  0.44698393  0.38931476     0.27600
C560        C  0.16797328  0.44842890  0.45220051     0.27600
C561        C  0.04066885  0.44146309  0.54022980     0.27600
C562        C  0.07562058  0.44353145  0.60280664     0.27600
C563        C  0.07628674  0.45643268  0.38580317     0.36200
C564        C  0.04013075  0.45366478  0.44448273     0.36200
C565        C  0.16617333  0.46250546  0.54722466     0.36200
C566        C  0.13024602  0.46005653  0.60620068     0.36200
C567        C  0.16022218  0.43403867  0.36858794    -0.21300
C568        C  0.18224759  0.43492490  0.40831540    -0.21300
C569        C  0.02746940  0.42934958  0.58519743    -0.21300
C570        C  0.04959905  0.43059601  0.62476161    -0.21300
C571        C  0.04872534  0.46527459  0.36090965    -0.22300
C572        C  0.02580197  0.46337358  0.39803274    -0.22300
C573        C  0.17842109  0.47466422  0.59369082    -0.22300
C574        C  0.15563396  0.47293701  0.63126958    -0.22300
C575        C  0.10527200  0.45235651  0.36048335    -0.17700
C576        C  0.18302208  0.45555448  0.50071049    -0.17700
C577        C  0.10258753  0.45180500  0.63128005    -0.17700
C578        C  0.02465967  0.44768930  0.49230328    -0.17700
H579        H  0.16380650  0.42510215  0.32883662     0.15200
H580        H  0.20610266  0.42674286  0.40507063     0.15200
H581        H  0.00405630  0.42126430  0.58939210     0.15200
H582        H  0.04657063  0.42361999  0.66540992     0.15200
H583        H  0.04538788  0.47216716  0.32013991     0.13500
H584        H  0.00138088  0.46847981  0.39145292     0.13500
H585        H  0.20163518  0.48297017  0.60019979     0.13500
H586        H  0.15767205  0.47984579  0.67245607     0.13500
H587        H  0.12271377  0.46885722  0.46355943     0.26800
H588        H  0.08361852  0.46348618  0.52733844     0.26800
N589        N  0.77426590  0.45806156  0.04894910    -0.36000
N590        N  0.77504583  0.45960063  0.93480836    -0.56600
N591        N  0.84218630  0.45698018  0.93729272    -0.36000
N592        N  0.84152828  0.45342054  0.05119775    -0.56600
C593        C  0.74459949  0.45116779  0.03671230     0.27600
C594        C  0.77992565  0.44784426  0.09865650     0.27600
C595        C  0.83619706  0.44936625  0.88624823     0.27600
C596        C  0.87158107  0.44719218  0.94804867     0.27600
C597        C  0.74485224  0.46705125  0.94294925     0.36200
C598        C  0.78087741  0.46597864  0.88370104     0.36200
C599        C  0.83591114  0.45863428  0.10313750     0.36200
C600        C  0.87196338  0.45873523  0.04391198     0.36200
C601        C  0.73135860  0.43620353  0.07901576    -0.21300
C602        C  0.75367288  0.43415142  0.11816782    -0.21300
C603        C  0.86197723  0.43434323  0.86441401    -0.21300
C604        C  0.88432958  0.43289773  0.90356440    -0.21300
C605        C  0.73147941  0.47871703  0.89693678    -0.22300
C606        C  0.75437095  0.47794765  0.85921520    -0.22300
C607        C  0.86286512  0.46727967  0.12893103    -0.22300
C608        C  0.88567252  0.46733317  0.09145233    -0.22300
C609        C  0.72878357  0.45983934  0.98958025    -0.17700
C610        C  0.80738521  0.45301022  0.12804819    -0.17700
C611        C  0.88777656  0.45337972  0.99567782    -0.17700
C612        C  0.80891714  0.45787780  0.85806711    -0.17700
H613        H  0.70794403  0.42791026  0.08167356     0.15200
H614        H  0.75078185  0.42412466  0.15687947     0.15200
H615        H  0.86458527  0.42577716  0.82421558     0.15200
H616        H  0.90753357  0.42302803  0.89948438     0.15200
H617        H  0.70755798  0.48611508  0.89079237     0.13500
H618        H  0.75164469  0.48464551  0.81821456     0.13500
H619        H  0.86596305  0.47258721  0.17056031     0.13500
H620        H  0.90971670  0.47248572  0.09883663     0.13500
H621        H  0.78856716  0.47223762  0.02724235     0.26800
H622        H  0.82852017  0.47153445  0.96122641     0.26800
N623        N  0.77623935  0.45167067  0.43691581    -0.36000
N624        N  0.77737372  0.45061197  0.55139185    -0.56600
N625        N  0.84463027  0.45282547  0.55059065    -0.36000
N626        N  0.84371911  0.45091519  0.43580098    -0.56600
C627        C  0.74674793  0.44367296  0.44724311     0.27600
C628        C  0.78203345  0.44364610  0.38596156     0.27600
C629        C  0.83953596  0.44535009  0.60160726     0.27600
C630        C  0.87473756  0.44575333  0.54031759     0.27600
C631        C  0.74669279  0.45595962  0.54326656     0.36200
C632        C  0.78280867  0.45654116  0.60321480     0.36200
C633        C  0.83773945  0.45677035  0.38420252     0.36200
C634        C  0.87389986  0.45730585  0.44430284     0.36200
C635        C  0.73364067  0.43048061  0.40236298    -0.21300
C636        C  0.75593446  0.43041117  0.36368388    -0.21300
C637        C  0.86671915  0.43349399  0.62408187    -0.21300
C638        C  0.88897469  0.43375915  0.58535615    -0.21300
C639        C  0.73260814  0.46530245  0.59012443    -0.22300
C640        C  0.75548192  0.46578017  0.62804565    -0.22300
C641        C  0.86422166  0.46716611  0.35985958    -0.22300
C642        C  0.88720569  0.46732825  0.39793088    -0.22300
C643        C  0.73092040  0.44952540  0.49529835    -0.17700
C644        C  0.80948374  0.45001078  0.35813237    -0.17700
C645        C  0.89004190  0.45159326  0.49229625    -0.17700
C646        C  0.81151458  0.45088395  0.62919472    -0.17700
H647        H  0.71038026  0.42190826  0.39785853     0.15200
H648        H  0.75313484  0.42182514  0.32355504     0.15200
H649        H  0.87022114  0.42570552  0.66434152     0.15200
H650        H  0.91296627  0.42619920  0.58997927     0.15200
H651        H  0.70824657  0.47043221  0.59675690     0.13500
H652        H  0.75213680  0.47150958  0.66945637     0.13500
H653        H  0.86688232  0.47336729  0.31875043     0.13500
H654        H  0.91105928  0.47366777  0.39202813     0.13500
H655        H  0.79028621  0.46510713  0.46116026     0.26800
H656        H  0.82947205  0.46535378  0.52619380     0.26800
C657        C  0.79266623  0.43373278  0.77273359    -0.11600
C658        C  0.80950112  0.45663374  0.79926660     0.05400
C659        C  0.82840077  0.47642810  0.77008061    -0.06900
C660        C  0.82961386  0.47329227  0.71487975    -0.07700
C661        C  0.81227823  0.45081128  0.68816022    -0.02200
C662        C  0.79427589  0.43021722  0.71757459     0.04600
N663        N  0.77778377  0.40562404  0.69202607     0.67100
H664        H  0.77891978  0.41794188  0.79535944     0.16000
H665        H  0.84332483  0.48920564  0.69242104     0.15700
N666        N  0.84600015  0.50006700  0.79588450     0.74800
O667        O  0.79074926  0.38914172  0.65655366    -0.38700
O668        O  0.75101570  0.39887623  0.70744519    -0.38600
O669        O  0.87373527  0.50435085  0.78265392    -0.39300
O670        O  0.83337662  0.51785131  0.82986243    -0.39400
C671        C  0.82665229  0.43058014  0.21340120    -0.11600
C672        C  0.80660338  0.45164761  0.18715234     0.05400
C673        C  0.78628147  0.47091674  0.21745182    -0.06900
C674        C  0.78754259  0.46964928  0.27286197    -0.07700
C675        C  0.80830262  0.44930305  0.29903957    -0.02200
C676        C  0.82757121  0.42900054  0.26882333     0.04600
N677        N  0.84789769  0.40654147  0.29369860     0.67100
H678        H  0.84153517  0.41501788  0.19041245     0.16000
H679        H  0.77253704  0.48510372  0.29585475     0.15700
N680        N  0.76422827  0.49180267  0.19287476     0.74800
O681        O  0.83806549  0.38972197  0.33027265    -0.38700
O682        O  0.87503097  0.40179213  0.27642203    -0.38600
O683        O  0.73650325  0.49312949  0.20866900    -0.39300
O684        O  0.77246895  0.50964268  0.15657789    -0.39400
C685        C  0.97368877  0.42654641  0.46475848    -0.11600
C686        C  0.99010620  0.44926507  0.49275046     0.05400
C687        C  0.97352288  0.47265277  0.52153140    -0.06900
C688        C  0.94091389  0.47295501  0.52032763    -0.07700
C689        C  0.92460362  0.45028906  0.49220813    -0.02200
C690        C  0.94116309  0.42646992  0.46512808     0.04600
N691        N  0.92523850  0.40154141  0.43961859     0.67100
H692        H  0.98634938  0.40822655  0.44384549     0.16000
H693        H  0.92803026  0.49108340  0.54133280     0.15700
N694        N  0.98912734  0.49594674  0.55244881     0.74800
O695        O  0.93286113  0.39268467  0.39363269    -0.38700
O696        O  0.90528727  0.38665723  0.46462315    -0.38600
O697        O  0.01501931  0.50604635  0.53846349    -0.39300
O698        O  0.97631471  0.50752729  0.59312655    -0.39400
C699        C  0.08409933  0.47303058  0.77433238    -0.11600
C700        C  0.10022733  0.44928667  0.80132213     0.05400
C701        C  0.11672066  0.42619861  0.77240204    -0.06900
C702        C  0.11785216  0.42798888  0.71709520    -0.07700
C703        C  0.10186920  0.45180815  0.69004538    -0.02200
C704        C  0.08465143  0.47453089  0.71887549     0.04600
N705        N  0.06787243  0.49921381  0.69258723     0.67100
H706        H  0.07156749  0.49082422  0.79673004     0.16000
H707        H  0.13052407  0.41022901  0.69485949     0.15700
N708        N  0.13172619  0.40053292  0.79873007     0.74800
O709        O  0.04223958  0.50915918  0.71069686    -0.38700
O710        O  0.07926548  0.51226810  0.65293414    -0.38600
O711        O  0.11708204  0.38503323  0.83206456    -0.39300
O712        O  0.15892154  0.39197937  0.78615227    -0.39400
C713        C  0.12318816  0.47199124  0.21715145    -0.11600
C714        C  0.10410052  0.45137390  0.18961872     0.05400
C715        C  0.08636020  0.43034686  0.21819484    -0.06900
C716        C  0.08731553  0.43085612  0.27358284    -0.07700
C717        C  0.10596228  0.45186933  0.30137236    -0.02200
C718        C  0.12457796  0.47214912  0.27251467     0.04600
N719        N  0.14489703  0.49310351  0.29873304     0.67100
H720        H  0.13709356  0.48807261  0.19540340     0.16000
H721        H  0.07360986  0.41454240  0.29516952     0.15700
N722        N  0.06793767  0.40785121  0.19140256     0.74800
O723        O  0.13382912  0.51706277  0.32128700    -0.38700
O724        O  0.17381352  0.49044161  0.29184347    -0.38600
O725        O  0.08086136  0.38684784  0.16353829    -0.39300
O726        O  0.03912095  0.40715991  0.19956898    -0.39400
C727        C  0.97163521  0.47125124  0.96203467    -0.11600
C728        C  0.98814921  0.45184383  0.99714966     0.05400
C729        C  0.97159787  0.43271296  0.03153833    -0.06900
C730        C  0.93907182  0.43366791  0.03025655    -0.07700
C731        C  0.92248329  0.45325759  0.99537727    -0.02200
C732        C  0.93917548  0.47189355  0.96022577     0.04600
N733        N  0.92371365  0.49109527  0.92170126     0.67100
H734        H  0.98416849  0.48605981  0.93563814     0.16000
H735        H  0.92655869  0.41856323  0.05615148     0.15700
N736        N  0.98736762  0.41191293  0.06733491     0.74800
O737        O  0.90307164  0.51068740  0.93563867    -0.38700
O738        O  0.93171959  0.48944348  0.87374126    -0.38600
O739        O  0.97815508  0.40968756  0.11445206    -0.39300
O740        O  0.00900014  0.39407120  0.05104652    -0.39400
C741        C  0.64830819  0.42817546  0.53069799    -0.11600
C742        C  0.63084002  0.44869972  0.49896470     0.05400
C743        C  0.64628268  0.46915523  0.46543276    -0.06900
C744        C  0.67880223  0.46866786  0.46418149    -0.07700
C745        C  0.69635170  0.44792516  0.49558714    -0.02200
C746        C  0.68083578  0.42700438  0.52843805     0.04600
N747        N  0.69773167  0.40420647  0.55897863     0.67100
H748        H  0.63650411  0.41206426  0.55579371     0.16000
H749        H  0.69050045  0.48508449  0.43950440     0.15700
N750        N  0.62930562  0.49153548  0.43445972     0.74800
O751        O  0.71968472  0.38848055  0.53836258    -0.38700
O752        O  0.68928669  0.39810680  0.60540388    -0.38600
O753        O  0.61318049  0.51252925  0.45712127    -0.39300
O754        O  0.63326766  0.49255742  0.38505032    -0.39400
C755        C  0.64367644  0.47093752  0.02630818    -0.11600
C756        C  0.62923700  0.45076342  0.99029520     0.05400
C757        C  0.64765269  0.43486562  0.95187509    -0.06900
C758        C  0.67991616  0.43830056  0.95241289    -0.07700
C759        C  0.69420652  0.45865228  0.98811101    -0.02200
C760        C  0.67569234  0.47581678  0.02440657     0.04600
N761        N  0.68906081  0.49868629  0.05864326     0.67100
H762        H  0.62974452  0.48401372  0.05473436     0.16000
H763        H  0.69401783  0.42503076  0.92448209     0.15700
N764        N  0.63443434  0.41454460  0.91297687     0.74800
O765        O  0.68129449  0.50059322  0.10668402    -0.38700
O766        O  0.70679662  0.51860563  0.03990711    -0.38600
O767        O  0.61739400  0.42581465  0.87678912    -0.39300
O768        O  0.64624270  0.38770862  0.90635219    -0.39400
C769        C  0.26660323  0.43576022  0.54172897    -0.11600
C770        C  0.28325444  0.45356213  0.50609783     0.05400
C771        C  0.26689674  0.47269494  0.46966976    -0.06900
C772        C  0.23436723  0.47293641  0.46886469    -0.07700
C773        C  0.21766558  0.45430718  0.50323909    -0.02200
C774        C  0.23408577  0.43531221  0.53992371     0.04600
N775        N  0.21823160  0.41474417  0.57432057     0.67100
H776        H  0.27903458  0.42081027  0.56932191     0.16000
H777        H  0.22192470  0.48804412  0.44152053     0.15700
N778        N  0.28284343  0.49264217  0.43436861     0.74800
O779        O  0.19713529  0.39772499  0.55629906    -0.38700
O780        O  0.22703727  0.41163485  0.62180018    -0.38600
O781        O  0.27392630  0.49516995  0.38684934    -0.39300
O782        O  0.30348721  0.51035241  0.45194753    -0.39400
C783        C  0.26599366  0.42877104  0.96371474    -0.11600
C784        C  0.28161452  0.44944979  0.99711619     0.05400
C785        C  0.26436012  0.47054653  0.02892365    -0.06900
C786        C  0.23191050  0.47055152  0.02703830    -0.07700
C787        C  0.21623184  0.44920954  0.99483652    -0.02200
C788        C  0.23352177  0.42791323  0.96326445     0.04600
N789        N  0.21846437  0.40466607  0.93210339     0.67100
H790        H  0.27914919  0.41222458  0.93967363     0.16000
H791        H  0.21881967  0.48723604  0.05092203     0.15700
N792        N  0.27948111  0.49278239  0.06185446     0.74800
O793        O  0.22589447  0.40029872  0.88430706    -0.38700
O794        O  0.19974337  0.38664573  0.95349950    -0.38600
O795        O  0.28869027  0.51767089  0.04214659    -0.39300
O796        O  0.28000647  0.48942913  0.11143045    -0.39400
C797        C  0.50569383  0.74685380  0.45727406    -0.11600
C798        C  0.52253357  0.76424649  0.49444048     0.05400
C799        C  0.54254901  0.74844792  0.53050319    -0.06900
C800        C  0.54395489  0.71585668  0.53016446    -0.07700
C801        C  0.52747956  0.69858801  0.49244036    -0.02200
C802        C  0.50856826  0.71444363  0.45515314     0.04600
N803        N  0.49149616  0.69795481  0.41567681     0.67100
H804        H  0.49019497  0.75857689  0.42956400     0.16000
H805        H  0.55901398  0.70391496  0.55826977     0.15700
N806        N  0.56207022  0.76506114  0.56673954     0.74800
O807        O  0.46385797  0.69067966  0.42447991    -0.38700
O808        O  0.50219908  0.69516478  0.36944897    -0.38600
O809        O  0.56651844  0.75522425  0.61316262    -0.39300
O810        O  0.57719463  0.78787395  0.55104580    -0.39400
C811        C  0.54165162  0.71525890  0.96189947    -0.11600
C812        C  0.52431637  0.69878416  0.99852920     0.05400
C813        C  0.50537558  0.71543809  0.03486507    -0.06900
C814        C  0.50367857  0.74792080  0.03329125    -0.07700
C815        C  0.52142949  0.76455495  0.99731004    -0.02200
C816        C  0.54124463  0.74787309  0.96195630     0.04600
N817        N  0.56169524  0.76357924  0.92707749     0.67100
H818        H  0.55677995  0.70265108  0.93467532     0.16000
H819        H  0.48826923  0.76031101  0.06035805     0.15700
N820        N  0.48715785  0.69971486  0.07282978     0.74800
O821        O  0.57719074  0.78616207  0.94383638    -0.38700
O822        O  0.56650385  0.75314732  0.88088711    -0.38600
O823        O  0.49268849  0.70315942  0.12164349    -0.39300
O824        O  0.46353057  0.68518402  0.05800803    -0.39400
C825        C  0.49268229  0.89473633  0.77618679    -0.11600
C826        C  0.51599300  0.87800458  0.80340145     0.05400
C827        C  0.53857773  0.86080216  0.77456092    -0.06900
C828        C  0.53695903  0.86007761  0.71913627    -0.07700
C829        C  0.51370728  0.87688901  0.69184627    -0.02200
C830        C  0.49123132  0.89440962  0.72066312     0.04600
N831        N  0.46681596  0.91171356  0.69430579     0.67100
H832        H  0.47519627  0.90766711  0.79849510     0.16000
H833        H  0.55448599  0.84707806  0.69703865     0.15700
N834        N  0.56356879  0.84458327  0.80102303     0.74800
O835        O  0.45437731  0.90123307  0.65264328    -0.38700
O836        O  0.45635208  0.93676552  0.71433567    -0.38600
O837        O  0.57093267  0.81713666  0.78745348    -0.39300
O838        O  0.57984595  0.85841507  0.83517549    -0.39400
C839        C  0.53157632  0.89915190  0.22097009    -0.11600
C840        C  0.51178576  0.87964773  0.19233336     0.05400
C841        C  0.49233743  0.85958814  0.22023295    -0.06900
C842        C  0.49267225  0.86015669  0.27577425    -0.07700
C843        C  0.51209107  0.88007969  0.30425242    -0.02200
C844        C  0.53208663  0.89952579  0.27643311     0.04600
N845        N  0.55340962  0.91928042  0.30372553     0.67100
H846        H  0.54729466  0.91376041  0.19983132     0.16000
H847        H  0.47743878  0.84510339  0.29705908     0.15700
N848        N  0.47254493  0.83824465  0.19305641     0.74800
O849        O  0.56969826  0.90899275  0.34171856    -0.38700
O850        O  0.55786795  0.94631386  0.28712785    -0.38600
O851        O  0.47046925  0.81079675  0.20935267    -0.39300
O852        O  0.45653022  0.84681050  0.15357800    -0.39400
C853        C  0.55982392  0.33407972  0.53000730    -0.11600
C854        C  0.53536520  0.35094598  0.50596172     0.05400
C855        C  0.51066262  0.33490558  0.48194952    -0.06900
C856        C  0.51136995  0.30235115  0.48133433    -0.07700
C857        C  0.53598834  0.28554392  0.50477515    -0.02200
C858        C  0.56057624  0.30151436  0.52883767     0.04600
N859        N  0.58675533  0.28488694  0.55074776     0.67100
H860        H  0.57895188  0.34627263  0.54801532     0.16000
H861        H  0.49221057  0.29000376  0.46374481     0.15700
N862        N  0.48409734  0.35126571  0.46042480     0.74800
O863        O  0.60222147  0.26594602  0.52232979    -0.38700
O864        O  0.59550219  0.29032518  0.59764281    -0.38600
O865        O  0.47117713  0.34147610  0.41869120    -0.39300
O866        O  0.47098289  0.37281789  0.48680670    -0.39400
C867        C  0.54052264  0.03917800  0.46870764    -0.11600
C868        C  0.52127563  0.05790271  0.50115889     0.05400
C869        C  0.49947517  0.04354196  0.53427742    -0.06900
C870        C  0.49752146  0.01099795  0.53347003    -0.07700
C871        C  0.51676646  0.99242703  0.50086552    -0.02200
C872        C  0.53868097  0.00676248  0.46849616     0.04600
N873        N  0.55969120  0.98868143  0.43614265     0.67100
H874        H  0.55770314  0.04989458  0.44420541     0.16000
H875        H  0.48055447  0.99998334  0.55800079     0.15700
N876        N  0.47923677  0.06137653  0.56879242     0.74800
O877        O  0.56405504  0.99608371  0.38859433    -0.38700
O878        O  0.57583961  0.96690101  0.45615405    -0.38600
O879        O  0.46869734  0.08772758  0.55532412    -0.39300
O880        O  0.47044024  0.05004824  0.61191215    -0.39400
C881        C  0.55485170  0.29983235  0.97269124    -0.11600
C882        C  0.53156686  0.28528358  0.00116941     0.05400
C883        C  0.51014631  0.30355831  0.03091391    -0.06900
C884        C  0.51272812  0.33597635  0.03183917    -0.07700
C885        C  0.53571303  0.35047508  0.00261320    -0.02200
C886        C  0.55714230  0.33217954  0.97342769     0.04600
N887        N  0.58269884  0.34605682  0.94781810     0.67100
H888        H  0.57181286  0.28588327  0.95094319     0.16000
H889        H  0.49598548  0.35004124  0.05385895     0.15700
N890        N  0.48536544  0.28962230  0.05919990     0.74800
O891        O  0.60382982  0.35802772  0.97550837    -0.38700
O892        O  0.58640090  0.34255540  0.89858325    -0.38600
O893        O  0.47724216  0.30024589  0.10389306    -0.39300
O894        O  0.46989740  0.26832293  0.03787126    -0.39400
C895        C  0.55133884  0.18744475  0.72569732    -0.11600
C896        C  0.52884177  0.17113894  0.69713012     0.05400
C897        C  0.50692136  0.15373099  0.72479236    -0.06900
C898        C  0.50807155  0.15303765  0.78027920    -0.07700
C899        C  0.53039619  0.16958739  0.80880094    -0.02200
C900        C  0.55247642  0.18674523  0.78112253     0.04600
N901        N  0.57618980  0.20339579  0.80868303     0.67100
H902        H  0.56849443  0.20036057  0.70455703     0.16000
H903        H  0.49086480  0.14022830  0.80149691     0.15700
N904        N  0.48317753  0.13708240  0.69726671     0.74800
O905        O  0.59196726  0.19043646  0.84489888    -0.38700
O906        O  0.58289108  0.23037304  0.79439273    -0.38600
O907        O  0.47602296  0.11037662  0.71229670    -0.39300
O908        O  0.46777484  0.14981667  0.66037342    -0.39400
C909        C  0.55474803  0.15412900  0.22429346    -0.11600
C910        C  0.53343274  0.17374878  0.19773070     0.05400
C911        C  0.51338325  0.19338438  0.22755499    -0.06900
C912        C  0.51423783  0.19238544  0.28284365    -0.07700
C913        C  0.53524543  0.17250962  0.30931249    -0.02200
C914        C  0.55603333  0.15356237  0.27972384     0.04600
N915        N  0.57871228  0.13399321  0.30547806     0.67100
H916        H  0.57061902  0.13937005  0.20171039     0.16000
H917        H  0.49819172  0.20700522  0.30535425     0.15700
N918        N  0.49141309  0.21380763  0.20229934     0.74800
O919        O  0.58093206  0.10553735  0.29350830    -0.38700
O920        O  0.59811972  0.14556559  0.33718064    -0.38600
O921        O  0.46426174  0.20471799  0.19376287    -0.39300
O922        O  0.49669110  0.24242785  0.20045220    -0.39400
C923        C  0.49675002  0.01112288  0.97746921    -0.11600
C924        C  0.52062787  0.99267375  0.99958617     0.05400
C925        C  0.54618741  0.00693939  0.02380710    -0.06900
C926        C  0.54732727  0.03934068  0.02633437    -0.07700
C927        C  0.52339285  0.05785475  0.00441903    -0.02200
C928        C  0.49779417  0.04361268  0.97982951     0.04600
N929        N  0.47280475  0.06178371  0.95718325     0.67100
H930        H  0.47694040  0.00014706  0.95926603     0.16000
H931        H  0.56723947  0.05014922  0.04449147     0.15700
N932        N  0.57150440  0.98868973  0.04456256     0.74800
O933        O  0.46104072  0.05378521  0.91339209    -0.38700
O934        O  0.46122668  0.08476627  0.98211297    -0.38600
O935        O  0.59194993  0.97764377  0.01369715    -0.39300
O936        O  0.57521889  0.98636584  0.09397513    -0.39400
C937        C  0.26181314  0.62065059  0.47674212    -0.11600
C938        C  0.27989445  0.60263140  0.51178954     0.05400
C939        C  0.26490823  0.58348551  0.54827247    -0.06900
C940        C  0.23236884  0.58247491  0.54836424    -0.07700
C941        C  0.21419331  0.60074568  0.51364953    -0.02200
C942        C  0.22924154  0.62059867  0.47821921     0.04600
N943        N  0.21180861  0.64118736  0.44421326     0.67100
H944        H  0.27313170  0.63579128  0.44930685     0.16000
H945        H  0.22116593  0.56678784  0.57502704     0.15700
N946        N  0.28232558  0.56396728  0.58391390     0.74800
O947        O  0.18930434  0.65722850  0.46229028    -0.38700
O948        O  0.22042916  0.64532070  0.39719732    -0.38600
O949        O  0.27525122  0.56336736  0.63230252    -0.39300
O950        O  0.30248564  0.54488495  0.56623450    -0.39400
C951        C  0.22733973  0.61233667  0.04361669    -0.11600
C952        C  0.21269550  0.59276098  0.00682517     0.05400
C953        C  0.23115802  0.57570711  0.96998297    -0.06900
C954        C  0.26331423  0.58014792  0.96878891    -0.07700
C955        C  0.27785916  0.59970593  0.00560139    -0.02200
C956        C  0.25961626  0.61561242  0.04384057     0.04600
N957        N  0.27334592  0.63596599  0.08200786     0.67100
H958        H  0.21348246  0.62561066  0.07189186     0.16000
H959        H  0.27730763  0.56702882  0.94051240     0.15700
N960        N  0.21780035  0.55328701  0.93462889     0.74800
O961        O  0.28759571  0.65947415  0.06691710    -0.38700
O962        O  0.26874764  0.63212159  0.13077751    -0.38600
O963        O  0.22804756  0.54982565  0.88817859    -0.39300
O964        O  0.19765698  0.53502185  0.95109601    -0.39400
C965        C  0.07823068  0.61092501  0.78738805    -0.11600
C966        C  0.09674331  0.58855899  0.81355002     0.05400
C967        C  0.11511463  0.56727246  0.78354341    -0.06900
C968        C  0.11514605  0.56949313  0.72812650    -0.07700
C969        C  0.09714372  0.59229453  0.70207349    -0.02200
C970        C  0.07851089  0.61318622  0.73207775     0.04600
N971        N  0.06050577  0.63730467  0.70696166     0.67100
H972        H  0.06427147  0.62737119  0.81029738     0.16000
H973        H  0.12900262  0.55308929  0.70495327     0.15700
N974        N  0.13358649  0.54329871  0.80860450     0.74800
O975        O  0.03194458  0.64064054  0.71677478    -0.38700
O976        O  0.07355952  0.65673113  0.67806035    -0.38600
O977        O  0.12371926  0.52972805  0.84896180    -0.39300
O978        O  0.15894555  0.53414962  0.78837498    -0.39400
C979        C  0.08306773  0.56896563  0.23087243    -0.11600
C980        C  0.10055470  0.59005930  0.20241215     0.05400
C981        C  0.11894267  0.61149068  0.23025440    -0.06900
C982        C  0.11997657  0.61100785  0.28569868    -0.07700
C983        C  0.10210973  0.59025088  0.31425416    -0.02200
C984        C  0.08323147  0.56905298  0.28638843     0.04600
N985        N  0.06372802  0.54793003  0.31359033     0.67100
H986        H  0.06912984  0.55230498  0.20959928     0.16000
H987        H  0.13380012  0.62783511  0.30679662     0.15700
N988        N  0.13558124  0.63468751  0.20281243     0.74800
O989        O  0.03683267  0.54270458  0.29610269    -0.38700
O990        O  0.07342758  0.53382409  0.35424508    -0.38600
O991        O  0.12118944  0.65356197  0.17302369    -0.39300
O992        O  0.16400178  0.63843875  0.21257256    -0.39400
C993        C  0.67813143  0.60202077  0.45447981    -0.11600
C994        C  0.69204520  0.58392156  0.49462820     0.05400
C995        C  0.67288478  0.57079477  0.53318126    -0.06900
C996        C  0.64095158  0.57766731  0.53293665    -0.07700
C997        C  0.62711522  0.59579841  0.49292900    -0.02200
C998        C  0.64593448  0.60737764  0.45260368     0.04600
N999        N  0.63287016  0.62532666  0.41033815     0.67100
H1000       H  0.69242128  0.61246081  0.42472726     0.16000
H1001       H  0.62661183  0.56752027  0.56293588     0.15700
N1002       N  0.68540947  0.54972307  0.57175317     0.74800
O1003       O  0.62569619  0.65356650  0.41789847    -0.38700
O1004       O  0.63184788  0.61398362  0.36411306    -0.38600
O1005       O  0.67740004  0.55215734  0.61963171    -0.39300
O1006       O  0.70190533  0.52669885  0.55701293    -0.39400
C1007       C  0.93643561  0.57204177  0.46700480    -0.11600
C1008       C  0.91961418  0.59157150  0.50176860     0.05400
C1009       C  0.93586292  0.61222081  0.53512542    -0.06900
C1010       C  0.96844770  0.61155851  0.53494779    -0.07700
C1011       C  0.98532338  0.59165439  0.50070473    -0.02200
C1012       C  0.96886423  0.57230169  0.46536328     0.04600
N1013       N  0.98452196  0.55307404  0.42701712     0.67100
H1014       H  0.92421368  0.55636017  0.44083386     0.16000
H1015       H  0.98079731  0.62727309  0.56084716     0.15700
N1016       N  0.91969403  0.63439753  0.56833106     0.74800
O1017       O  0.99585794  0.52713028  0.44064989    -0.38700
O1018       O  0.98057294  0.55853319  0.37839441    -0.38600
O1019       O  0.92949587  0.63997018  0.61459887    -0.39300
O1020       O  0.89741350  0.65058977  0.54986508    -0.39400
C1021       C  0.67529423  0.58294212  0.96485542    -0.11600
C1022       C  0.69106463  0.60353143  0.99834888     0.05400
C1023       C  0.67376079  0.62390210  0.03163730    -0.06900
C1024       C  0.64125202  0.62273495  0.03173984    -0.07700
C1025       C  0.62549869  0.60274218  0.99719629    -0.02200
C1026       C  0.64281244  0.58278938  0.96335128     0.04600
N1027       N  0.62775439  0.56137526  0.92878150     0.67100
H1028       H  0.68834104  0.56689096  0.93970772     0.16000
H1029       H  0.62815700  0.63839567  0.05749165     0.15700
N1030       N  0.68886987  0.64630844  0.06451956     0.74800
O1031       O  0.62198462  0.56881181  0.88146483    -0.38700
O1032       O  0.62470170  0.53363982  0.94290786    -0.38600
O1033       O  0.70761336  0.66484099  0.04450927    -0.39300
O1034       O  0.68151852  0.64941802  0.11260311    -0.39400
C1035       C  0.78640107  0.57679667  0.78116899    -0.11600
C1036       C  0.80440689  0.59952522  0.80586612     0.05400
C1037       C  0.82246091  0.61900414  0.77439156    -0.06900
C1038       C  0.82290564  0.61455990  0.71921106    -0.07700
C1039       C  0.80524272  0.59148567  0.69462249    -0.02200
C1040       C  0.78666200  0.57262845  0.72611840     0.04600
N1041       N  0.76868498  0.54854626  0.70282053     0.67100
H1042       H  0.77272868  0.56157587  0.80507231     0.16000
H1043       H  0.83664131  0.62959781  0.69510760     0.15700
N1044       N  0.84015652  0.64343460  0.79778942     0.74800
O1045       O  0.73990147  0.54764879  0.71125734    -0.38700
O1046       O  0.78188916  0.52703295  0.67655365    -0.38600
O1047       O  0.86682244  0.64906353  0.78054028    -0.39300
O1048       O  0.82830057  0.66098267  0.83291733    -0.39400
C1049       C  0.78658056  0.60743740  0.22581433    -0.11600
C1050       C  0.80526590  0.58717542  0.19506392     0.05400
C1051       C  0.82414083  0.56437508  0.22083327    -0.06900
C1052       C  0.82407075  0.56290394  0.27640745    -0.07700
C1053       C  0.80548704  0.58332151  0.30676301    -0.02200
C1054       C  0.78661137  0.60584009  0.28118113     0.04600
N1055       N  0.76801712  0.62773285  0.31099818     0.67100
H1056       H  0.77245668  0.62521937  0.20656393     0.16000
H1057       H  0.83835271  0.54547515  0.29625321     0.15700
N1058       N  0.84358283  0.54279942  0.19155898     0.74800
O1059       O  0.73985953  0.63247342  0.29883779    -0.38700
O1060       O  0.78020058  0.64397201  0.34705131    -0.38600
O1061       O  0.86933558  0.53363411  0.21061833    -0.39300
O1062       O  0.83470530  0.53187359  0.14761988    -0.39400
C1063       C  0.93682350  0.61114904  0.97741460    -0.11600
C1064       C  0.91947430  0.58870142  0.00299186     0.05400
C1065       C  0.93518281  0.56438383  0.03057943    -0.06900
C1066       C  0.96780619  0.56350004  0.03204606    -0.07700
C1067       C  0.98494395  0.58626821  0.00709130    -0.02200
C1068       C  0.96929942  0.61041166  0.97975455     0.04600
N1069       N  0.98610275  0.63475609  0.95550564     0.67100
H1070       H  0.92491251  0.63001608  0.95700799     0.16000
H1071       H  0.98002465  0.54483543  0.05248908     0.15700
N1072       N  0.91863956  0.54080734  0.05780403     0.74800
O1073       O  0.97874927  0.64385666  0.90965924    -0.38700
O1074       O  0.00677544  0.64878143  0.98127495    -0.38600
O1075       O  0.89273299  0.53179026  0.04088701    -0.39300
O1076       O  0.93054171  0.52802368  0.09812428    -0.39400
C1077       C  0.36727599  0.30239896  0.46171316    -0.11600
C1078       C  0.38615891  0.28635540  0.49839552     0.05400
C1079       C  0.40306627  0.30358854  0.53643733    -0.06900
C1080       C  0.39950412  0.33608315  0.53833769    -0.07700
C1081       C  0.38077402  0.35203308  0.50133742    -0.02200
C1082       C  0.36485601  0.33485349  0.46234128     0.04600
N1083       N  0.34517383  0.34996160  0.42427849     0.67100
H1084       H  0.35393820  0.28956310  0.43271785     0.16000
H1085       H  0.41249451  0.34907920  0.56757932     0.15700
N1086       N  0.42420468  0.28854240  0.57275405     0.74800
O1087       O  0.35448550  0.35318220  0.37744765    -0.38700
O1088       O  0.31715065  0.35599105  0.43530097    -0.38600
O1089       O  0.44323216  0.26793319  0.55639435    -0.39300
O1090       O  0.42563987  0.29756466  0.62040983    -0.39400
C1091       C  0.36012068  0.30062985  0.03123652    -0.11600
C1092       C  0.37779788  0.28451868  0.99278676     0.05400
C1093       C  0.39450056  0.30164980  0.95539591    -0.06900
C1094       C  0.39259252  0.33420675  0.95691884    -0.07700
C1095       C  0.37554631  0.35021988  0.99622021    -0.02200
C1096       C  0.35900210  0.33311831  0.03356326     0.04600
N1097       N  0.34003198  0.34832523  0.07279799     0.67100
H1098       H  0.34680346  0.28777829  0.05946638     0.16000
H1099       H  0.40567455  0.34714493  0.92849811     0.15700
N1100       N  0.41394594  0.28653473  0.91645081     0.74800
O1101       O  0.31746656  0.36565765  0.05879483    -0.38700
O1102       O  0.34351567  0.34161504  0.12104345    -0.38600
O1103       O  0.41476229  0.29683458  0.86987432    -0.39300
O1104       O  0.43199679  0.26431158  0.92927714    -0.39400
C1105       C  0.35828589  0.15082397  0.77124483    -0.11600
C1106       C  0.37895946  0.16879679  0.80091074     0.05400
C1107       C  0.40000999  0.18773848  0.77431666    -0.06900
C1108       C  0.39941841  0.18882343  0.71888590    -0.07700
C1109       C  0.37854583  0.17111908  0.68919164    -0.02200
C1110       C  0.35771804  0.15188579  0.71574178     0.04600
N1111       N  0.33572190  0.13363220  0.68700365     0.67100
H1112       H  0.34191746  0.13652094  0.79153710     0.16000
H1113       H  0.41590771  0.20301468  0.69863348     0.15700
N1114       N  0.42229996  0.20567153  0.80298389     0.74800
O1115       O  0.33123191  0.10594188  0.70014295    -0.38700
O1116       O  0.31936359  0.14564517  0.65057994    -0.38600
O1117       O  0.43855037  0.19340287  0.83930190    -0.39300
O1118       O  0.42746476  0.23314420  0.78938187    -0.39400
C1119       C  0.36564637  0.19209430  0.21695121    -0.11600
C1120       C  0.38687347  0.17313139  0.18886160     0.05400
C1121       C  0.40858345  0.15436418  0.21706249    -0.06900
C1122       C  0.40808240  0.15458643  0.27265129    -0.07700
C1123       C  0.38636103  0.17307062  0.30064040    -0.02200
C1124       C  0.36498821  0.19198114  0.27235525     0.04600
N1125       N  0.34161786  0.21009257  0.29934967     0.67100
H1126       H  0.34867235  0.20617369  0.19554106     0.16000
H1127       H  0.42478672  0.14032574  0.29430849     0.15700
N1128       N  0.43098785  0.13488561  0.18993154     0.74800
O1129       O  0.33917088  0.23893162  0.29171008    -0.38700
O1130       O  0.32123614  0.19680494  0.32593829    -0.38600
O1131       O  0.44538945  0.14487661  0.15050956    -0.39300
O1132       O  0.43724191  0.10790178  0.20647890    -0.39400
C1133       C  0.40590575  0.74703537  0.52933962    -0.11600
C1134       C  0.38421635  0.76503866  0.50057861     0.05400
C1135       C  0.36025940  0.75026236  0.47240023    -0.06900
C1136       C  0.35890833  0.71778716  0.47232331    -0.07700
C1137       C  0.38006169  0.69982438  0.50219768    -0.02200
C1138       C  0.40393264  0.71462998  0.53070497     0.04600
N1139       N  0.42683828  0.69704354  0.55981342     0.67100
H1140       H  0.42441754  0.75828968  0.55084617     0.16000
H1141       H  0.34033616  0.70658910  0.45090724     0.15700
N1142       N  0.33637045  0.76804640  0.44589705     0.74800
O1143       O  0.44385325  0.67712870  0.53627756    -0.38700
O1144       O  0.43249376  0.70383950  0.60758388    -0.38600
O1145       O  0.32822307  0.76088252  0.39935886    -0.39300
O1146       O  0.32159798  0.78929996  0.47045345    -0.39400
C1147       C  0.40283617  0.00671909  0.46942847    -0.11600
C1148       C  0.37918949  0.99296309  0.49828435     0.05400
C1149       C  0.35674262  0.01195318  0.52395675    -0.06900
C1150       C  0.35903336  0.04425905  0.52189991    -0.07700
C1151       C  0.38269357  0.05812320  0.49319271    -0.02200
C1152       C  0.40483683  0.03910222  0.46618041     0.04600
N1153       N  0.42930174  0.05202084  0.43548356     0.67100
H1154       H  0.42000993  0.99200876  0.44964362     0.16000
H1155       H  0.34175527  0.05879130  0.54178619     0.15700
N1156       N  0.33108962  0.99877240  0.55084053     0.74800
O1157       O  0.44221226  0.07661888  0.45023085    -0.38700
O1158       O  0.43933683  0.03783439  0.39484963    -0.38600
O1159       O  0.32303918  0.00906175  0.59578347    -0.39300
O1160       O  0.31459501  0.97895799  0.52761872    -0.39400
C1161       C  0.35100678  0.71417566  0.03671562    -0.11600
C1162       C  0.37125073  0.69783036  0.00263904     0.05400
C1163       C  0.38947575  0.71439922  0.96705914    -0.06900
C1164       C  0.38738777  0.74682816  0.96642031    -0.07700
C1165       C  0.36663196  0.76328475  0.99960477    -0.02200
C1166       C  0.34782561  0.74662738  0.03456985     0.04600
N1167       N  0.32504298  0.76223141  0.06717498     0.67100
H1168       H  0.33656229  0.70151690  0.06348939     0.16000
H1169       H  0.40239041  0.75931206  0.94027896     0.15700
N1170       N  0.41098676  0.69866752  0.93259986     0.74800
O1171       O  0.30704027  0.78270184  0.04763227    -0.38700
O1172       O  0.32080782  0.75348919  0.11407344    -0.38600
O1173       O  0.40666307  0.69927418  0.88315147    -0.39300
O1174       O  0.43613390  0.68752901  0.95096175    -0.39400
C1175       C  0.40067461  0.86326436  0.72466085    -0.11600
C1176       C  0.37764135  0.87969511  0.69608897     0.05400
C1177       C  0.35322886  0.89489662  0.72353262    -0.06900
C1178       C  0.35245997  0.89384666  0.77886337    -0.07700
C1179       C  0.37522485  0.87708277  0.80733843    -0.01400
C1180       C  0.39971426  0.86171703  0.78006031     0.04600
N1181       N  0.42367328  0.84465356  0.80788834     0.67100
H1182       H  0.41952483  0.85164858  0.70357752     0.16000
H1183       H  0.33360135  0.90554907  0.79978812     0.15700
N1184       N  0.32851175  0.91043507  0.69553004     0.74800
O1185       O  0.43452434  0.81952732  0.78873924    -0.38700
O1186       O  0.43535133  0.85543782  0.84997775    -0.38600
O1187       O  0.31047695  0.89509774  0.66633851    -0.39300
O1188       O  0.32299010  0.93896735  0.70357171    -0.39400
C1189       C  0.35503476  0.85999526  0.22437074    -0.11600
C1190       C  0.37502234  0.87840857  0.19508707     0.05400
C1191       C  0.39700558  0.89673612  0.22228350    -0.06900
C1192       C  0.39859005  0.89572792  0.27774503    -0.07700
C1193       C  0.37844454  0.87745980  0.30680937    -0.02200
C1194       C  0.35620562  0.85966287  0.27982939     0.04600
N1195       N  0.33408729  0.84199389  0.30820165     0.67100
H1196       H  0.33777049  0.84643912  0.20383350     0.16000
H1197       H  0.41562863  0.90942272  0.29858753     0.15700
N1198       N  0.41745600  0.91680435  0.19472165     0.74800
O1199       O  0.31861728  0.85443094  0.34537339    -0.38700
O1200       O  0.32788658  0.81485474  0.29301143    -0.38600
O1201       O  0.42365339  0.94307002  0.21405291    -0.39300
O1202       O  0.43021997  0.90813620  0.15207872    -0.39400
C1203       C  0.39812341  0.03980974  0.02994052    -0.11600
C1204       C  0.37671614  0.05627795  0.99797760     0.05400
C1205       C  0.35547736  0.03970280  0.96633194    -0.06900
C1206       C  0.35599886  0.00723211  0.96769853    -0.07700
C1207       C  0.37690308  0.99084714  0.00052001    -0.02200
C1208       C  0.39854307  0.00728642  0.03150378     0.04600
N1209       N  0.42120695  0.99137054  0.06401040     0.67100
H1210       H  0.41494078  0.05242966  0.05322166     0.16000
H1211       H  0.33941403  0.99460148  0.94392606     0.15700
N1212       N  0.33300566  0.05543016  0.93329429     0.74800
O1213       O  0.43484613  0.96697421  0.04731712    -0.38700
O1214       O  0.42903789  0.00268889  0.10828207    -0.38600
O1215       O  0.32771695  0.04551890  0.88696934    -0.39300
O1216       O  0.31663513  0.07766848  0.95163331    -0.39400
loop_ 
_geom_bond_atom_site_label_1 
_geom_bond_atom_site_label_2 
_geom_bond_distance 
_geom_bond_site_symmetry_2 
_ccdc_geom_bond_type 
N1            C6   1.354       .  A
N1            C5   1.354       .  A
N1           H33   1.041       .  S
N2            C9   1.351       .  A
N2           C10   1.351       .  A
N3            C8   1.351       .  A
N3            C7   1.350       .  A
N3           H34   1.041       .  S
N4           C11   1.349       .  A
N4           C12   1.350       .  A
C5           C13   1.387       .  A
C5           C21   1.417   1_554  A
C6           C22   1.416       .  A
C6           C14   1.387       .  A
C7           C15   1.387       .  A
C7           C24   1.409       .  A
C8           C23   1.410   1_556  A
C8           C16   1.387       .  A
C9           C21   1.414       .  A
C9           C17   1.387       .  A
C10          C24   1.412       .  A
C10          C18   1.385       .  A
C11          C19   1.387       .  A
C11          C22   1.412       .  A
C12          C20   1.386       .  A
C12          C23   1.412       .  A
C13          C14   1.375       .  A
C13          H25   1.082       .  S
C14          H26   1.082       .  S
C15          C16   1.374       .  A
C15          H27   1.083       .  S
C16          H28   1.083       .  S
C17          C18   1.376       .  A
C17          H29   1.082       .  S
C18          H30   1.082       .  S
C19          C20   1.376       .  A
C19          H31   1.082       .  S
C20          H32   1.082       .  S
C21        C1165   1.495       .  S
C22        C1190   1.493       .  S
C23        C1207   1.488       .  S
C24        C1179   1.483       .  S
N35          C40   1.353       .  A
N35          C39   1.353       .  A
N35          H67   1.035       .  S
N36          C43   1.352       .  A
N36          C44   1.351       .  A
N37          C42   1.355       .  A
N37          C41   1.353       .  A
N37          H68   1.034       .  S
N38          C45   1.350       .  A
N38          C46   1.349       .  A
C39          C47   1.387       .  A
C39          C55   1.416       .  A
C40          C56   1.416       .  A
C40          C48   1.387       .  A
C41          C49   1.387       .  A
C41          C58   1.417       .  A
C42          C57   1.418       .  A
C42          C50   1.387       .  A
C43          C55   1.411       .  A
C43          C51   1.386       .  A
C44          C58   1.411       .  A
C44          C52   1.386       .  A
C45          C53   1.387       .  A
C45          C56   1.411       .  A
C46          C54   1.386       .  A
C46          C57   1.409       .  A
C47          C48   1.379       .  A
C47          H59   1.082       .  S
C48          H60   1.082       .  S
C49          C50   1.378       .  A
C49          H61   1.082       .  S
C50          H62   1.082       .  S
C51          C52   1.369       .  A
C51          H63   1.082       .  S
C52          H64   1.082       .  S
C53          C54   1.370       .  A
C53          H65   1.082       .  S
C54          H66   1.082       .  S
C55        C1134   1.490       .  S
C56        C1193   1.489       .  S
C57        C1148   1.489       .  S
C58        C1176   1.488       .  S
N69          C74   1.353       .  A
N69          C73   1.352       .  A
N69         H101   1.040       .  S
N70          C77   1.351       .  A
N70          C78   1.351       .  A
N71          C76   1.353       .  A
N71          C75   1.352       .  A
N71         H102   1.040       .  S
N72          C79   1.351       .  A
N72          C80   1.349       .  A
C73          C81   1.386       .  A
C73          C89   1.413       .  A
C74          C90   1.415   1_554  A
C74          C82   1.387       .  A
C75          C83   1.386       .  A
C75          C92   1.415       .  A
C76          C91   1.415       .  A
C76          C84   1.387       .  A
C77          C89   1.413       .  A
C77          C85   1.386       .  A
C78          C92   1.413   1_554  A
C78          C86   1.387       .  A
C79          C87   1.386       .  A
C79          C90   1.414       .  A
C80          C88   1.386       .  A
C80          C91   1.412       .  A
C81          C82   1.375       .  A
C81          H93   1.081       .  S
C82          H94   1.082       .  S
C83          C84   1.377       .  A
C83          H95   1.081       .  S
C84          H96   1.082       .  S
C85          C86   1.373       .  A
C85          H97   1.082       .  S
C86          H98   1.082       .  S
C87          C88   1.375       .  A
C87          H99   1.082       .  S
C88         H100   1.082       .  S
C89        C1120   1.490       .  S
C90        C1092   1.496       .  S
C91        C1106   1.491       .  S
C92        C1204   1.492       .  S
N103        C108   1.353       .  A
N103        C107   1.355       .  A
N103        H135   1.040       .  S
N104        C111   1.351       .  A
N104        C112   1.351       .  A
N105        C110   1.352       .  A
N105        C109   1.352       .  A
N105        H136   1.040       .  S
N106        C113   1.350       .  A
N106        C114   1.351       .  A
C107        C115   1.387       .  A
C107        C123   1.418       .  A
C108        C124   1.417       .  A
C108        C116   1.387       .  A
C109        C117   1.387       .  A
C109        C126   1.413       .  A
C110        C125   1.413       .  A
C110        C118   1.387       .  A
C111        C123   1.415       .  A
C111        C119   1.387       .  A
C112        C126   1.412       .  A
C112        C120   1.385       .  A
C113        C121   1.387       .  A
C113        C124   1.413       .  A
C114        C122   1.385       .  A
C114        C125   1.412       .  A
C115        C116   1.379       .  A
C115        H127   1.082       .  S
C116        H128   1.082       .  S
C117        C118   1.375       .  A
C117        H129   1.082       .  S
C118        H130   1.082       .  S
C119        C120   1.374       .  A
C119        H131   1.082       .  S
C120        H132   1.082       .  S
C121        C122   1.375       .  A
C121        H133   1.082       .  S
C122        H134   1.082       .  S
C123       C1078   1.499       .  S
C124       C1123   1.491       .  S
C125       C1151   1.489       .  S
C126       C1109   1.491       .  S
N137        C142   1.357       .  A
N137        C141   1.358       .  A
N137        H169   1.017       .  S
N138        C145   1.352       .  A
N138        C146   1.352       .  A
N139        C144   1.358       .  A
N139        C143   1.357       .  A
N139        H170   1.015       .  S
N140        C147   1.352       .  A
N140        C148   1.352       .  A
C141        C149   1.387       .  A
C141        C157   1.418       .  A
C142        C158   1.417   1_554  A
C142        C150   1.386       .  A
C143        C151   1.386       .  A
C143        C160   1.417   1_556  A
C144        C159   1.418       .  A
C144        C152   1.387       .  A
C145        C157   1.415       .  A
C145        C153   1.386       .  A
C146        C160   1.414       .  A
C146        C154   1.386       .  A
C147        C155   1.386       .  A
C147        C158   1.414       .  A
C148        C156   1.386       .  A
C148        C159   1.413       .  A
C149        C150   1.375       .  A
C149        H161   1.082       .  S
C150        H162   1.082       .  S
C151        C152   1.375       .  A
C151        H163   1.082       .  S
C152        H164   1.082       .  S
C153        C154   1.373       .  A
C153        H165   1.082       .  S
C154        H166   1.082       .  S
C155        C156   1.372       .  A
C155        H167   1.082       .  S
C156        H168   1.082       .  S
C157       C1050   1.498       .  S
C158       C1022   1.494       .  S
C159       C1036   1.493       .  S
C160       C1064   1.493       .  S
N171        C176   1.354       .  A
N171        C175   1.355       .  A
N171        H203   1.042       .  S
N172        C179   1.349       .  A
N172        C180   1.349       .  A
N173        C178   1.352       .  A
N173        C177   1.352       .  A
N173        H204   1.041       .  S
N174        C181   1.351       .  A
N174        C182   1.351       .  A
C175        C183   1.388       .  A
C175        C191   1.420       .  A
C176        C192   1.415       .  A
C176        C184   1.385       .  A
C177        C185   1.387       .  A
C177        C194   1.413       .  A
C178        C193   1.414       .  A
C178        C186   1.387       .  A
C179        C191   1.413       .  A
C179        C187   1.387       .  A
C180        C194   1.411       .  A
C180        C188   1.386       .  A
C181        C189   1.386       .  A
C181        C192   1.412       .  A
C182        C190   1.386       .  A
C182        C193   1.414       .  A
C183        C184   1.378       .  A
C183        H195   1.082       .  S
C184        H196   1.082       .  S
C185        C186   1.376       .  A
C185        H197   1.082       .  S
C186        H198   1.082       .  S
C187        C188   1.376       .  A
C187        H199   1.082       .  S
C188        H200   1.083       .  S
C189        C190   1.376       .  A
C189        H201   1.082       .  S
C190        H202   1.082       .  S
C191        C994   1.499       .  S
C192       C1039   1.494       .  S
C193       C1008   1.494       .  S
C194       C1053   1.488       .  S
N205        C210   1.352       .  A
N205        C209   1.354       .  A
N205        H237   1.041       .  S
N206        C213   1.351       .  A
N206        C214   1.351       .  A
N207        C212   1.351       .  A
N207        C211   1.352       .  A
N207        H238   1.040       .  S
N208        C215   1.351       .  A
N208        C216   1.351       .  A
C209        C217   1.387       .  A
C209        C225   1.417       .  A
C210        C226   1.415       .  A
C210        C218   1.386       .  A
C211        C219   1.387       .  A
C211        C228   1.413       .  A
C212        C227   1.412   1_556  A
C212        C220   1.387       .  A
C213        C225   1.416   1_556  A
C213        C221   1.387       .  A
C214        C228   1.414       .  A
C214        C222   1.386       .  A
C215        C223   1.387       .  A
C215        C226   1.412       .  A
C216        C224   1.385       .  A
C216        C227   1.411       .  A
C217        C218   1.377       .  A
C217        H229   1.082       .  S
C218        H230   1.082       .  S
C219        C220   1.377       .  A
C219        H231   1.083       .  S
C220        H232   1.083   1_455  S
C221        C222   1.375       .  A
C221        H233   1.082       .  S
C222        H234   1.082       .  S
C223        C224   1.373       .  A
C223        H235   1.082       .  S
C224        H236   1.082   1_455  S
C225        C952   1.498       .  S
C226        C980   1.491       .  S
C227       C1067   1.487   1_455  S
C228        C966   1.489       .  S
N239        C244   1.353       .  A
N239        C243   1.354       .  A
N239        H271   1.040       .  S
N240        C247   1.353       .  A
N240        C248   1.351       .  A
N241        C246   1.355       .  A
N241        C245   1.352       .  A
N241        H272   1.040       .  S
N242        C249   1.349       .  A
N242        C250   1.351       .  A
C243        C251   1.387       .  A
C243        C259   1.417       .  A
C244        C260   1.417       .  A
C244        C252   1.387       .  A
C245        C253   1.387       .  A
C245        C262   1.417       .  A
C246        C261   1.419       .  A
C246        C254   1.386       .  A
C247        C259   1.416       .  A
C247        C255   1.386       .  A
C248        C262   1.414       .  A
C248        C256   1.386       .  A
C249        C257   1.386       .  A
C249        C260   1.412       .  A
C250        C258   1.385       .  A
C250        C261   1.412       .  A
C251        C252   1.377       .  A
C251        H263   1.082       .  S
C252        H264   1.081       .  S
C253        C254   1.376       .  A
C253        H265   1.081       .  S
C254        H266   1.082   1_455  S
C255        C256   1.373       .  A
C255        H267   1.082       .  S
C256        H268   1.082       .  S
C257        C258   1.374       .  A
C257        H269   1.082       .  S
C258        H270   1.082   1_455  S
C259        C941   1.500       .  S
C260        C983   1.491       .  S
C261       C1011   1.498   1_455  S
C262        C969   1.490       .  S
N273        C278   1.352       .  A
N273        C277   1.353       .  A
N273        H305   1.041       .  S
N274        C281   1.350       .  A
N274        C282   1.350       .  A
N275        C280   1.352       .  A
N275        C279   1.353       .  A
N275        H306   1.040       .  S
N276        C283   1.351       .  A
N276        C284   1.351       .  A
C277        C285   1.386       .  A
C277        C293   1.414       .  A
C278        C294   1.415       .  A
C278        C286   1.387       .  A
C279        C287   1.387       .  A
C279        C296   1.415       .  A
C280        C295   1.413   1_556  A
C280        C288   1.386       .  A
C281        C293   1.410   1_556  A
C281        C289   1.386       .  A
C282        C296   1.412       .  A
C282        C290   1.387       .  A
C283        C291   1.387       .  A
C283        C294   1.413       .  A
C284        C292   1.385       .  A
C284        C295   1.411       .  A
C285        C286   1.377       .  A
C285        H297   1.082       .  S
C286        H298   1.082       .  S
C287        C288   1.377       .  A
C287        H299   1.082       .  S
C288        H300   1.082       .  S
C289        C290   1.373       .  A
C289        H301   1.082       .  S
C290        H302   1.082       .  S
C291        C292   1.373       .  A
C291        H303   1.082       .  S
C292        H304   1.082       .  S
C293        C882   1.488       .  S
C294        C910   1.490       .  S
C295        C927   1.487       .  S
C296        C899   1.489       .  S
N307        C312   1.351       .  A
N307        C311   1.352       .  A
N307        H339   1.040       .  S
N308        C315   1.351       .  A
N308        C316   1.350       .  A
N309        C314   1.354       .  A
N309        C313   1.352       .  A
N309        H340   1.041       .  S
N310        C317   1.351       .  A
N310        C318   1.352       .  A
C311        C319   1.386       .  A
C311        C327   1.411       .  A
C312        C328   1.412       .  A
C312        C320   1.388       .  A
C313        C321   1.388       .  A
C313        C330   1.416       .  A
C314        C329   1.416       .  A
C314        C322   1.386       .  A
C315        C327   1.412       .  A
C315        C323   1.385       .  A
C316        C330   1.414       .  A
C316        C324   1.387       .  A
C317        C325   1.386       .  A
C317        C328   1.413       .  A
C318        C326   1.386       .  A
C318        C329   1.415       .  A
C319        C320   1.375       .  A
C319        H331   1.082       .  S
C320        H332   1.082       .  S
C321        C322   1.378       .  A
C321        H333   1.082       .  S
C322        H334   1.082       .  S
C323        C324   1.375       .  A
C323        H335   1.082       .  S
C324        H336   1.082       .  S
C325        C326   1.374       .  A
C325        H337   1.082       .  S
C326        H338   1.082       .  S
C327        C857   1.486       .  S
C328        C913   1.486       .  S
C329        C868   1.498       .  S
C330        C896   1.490       .  S
N341        C346   1.353       .  A
N341        C345   1.354       .  A
N341        H373   1.041       .  S
N342        C349   1.352       .  A
N342        C350   1.351       .  A
N343        C348   1.353       .  A
N343        C347   1.352       .  A
N343        H374   1.039       .  S
N344        C351   1.351       .  A
N344        C352   1.351       .  A
C345        C353   1.387       .  A
C345        C361   1.417   1_554  A
C346        C362   1.415       .  A
C346        C354   1.386       .  A
C347        C355   1.387       .  A
C347        C364   1.414       .  A
C348        C363   1.413       .  A
C348        C356   1.387       .  A
C349        C361   1.415       .  A
C349        C357   1.386       .  A
C350        C364   1.414       .  A
C350        C358   1.386       .  A
C351        C359   1.388       .  A
C351        C362   1.414       .  A
C352        C360   1.385       .  A
C352        C363   1.411   1_554  A
C353        C354   1.376       .  A
C353        H365   1.082       .  S
C354        H366   1.082       .  S
C355        C356   1.376       .  A
C355        H367   1.082       .  S
C356        H368   1.082       .  S
C357        C358   1.374       .  A
C357        H369   1.082       .  S
C358        H370   1.082       .  S
C359        C360   1.372       .  A
C359        H371   1.082       .  S
C360        H372   1.082       .  S
C361        C815   1.500       .  S
C362        C840   1.494       .  S
C363        C924   1.486       .  S
C364        C826   1.488       .  S
N375        C380   1.351       .  A
N375        C379   1.354       .  A
N375        H407   1.041       .  S
N376        C383   1.351       .  A
N376        C384   1.349       .  A
N377        C382   1.354       .  A
N377        C381   1.351       .  A
N377        H408   1.041       .  S
N378        C385   1.350       .  A
N378        C386   1.351       .  A
C379        C387   1.387       .  A
C379        C395   1.415       .  A
C380        C396   1.414       .  A
C380        C388   1.387       .  A
C381        C389   1.386       .  A
C381        C398   1.414       .  A
C382        C397   1.416       .  A
C382        C390   1.387       .  A
C383        C395   1.412       .  A
C383        C391   1.386       .  A
C384        C398   1.411       .  A
C384        C392   1.386       .  A
C385        C393   1.387       .  A
C385        C396   1.414       .  A
C386        C394   1.386       .  A
C386        C397   1.414       .  A
C387        C388   1.376       .  A
C387        H399   1.082       .  S
C388        H400   1.082       .  S
C389        C390   1.378       .  A
C389        H401   1.082       .  S
C390        H402   1.082       .  S
C391        C392   1.375       .  A
C391        H403   1.082       .  S
C392        H404   1.082       .  S
C393        C394   1.377       .  A
C393        H405   1.082       .  S
C394        H406   1.082       .  S
C395        C798   1.497       .  S
C396        C843   1.490       .  S
C397        C871   1.495       .  S
C398        C829   1.487       .  S
O409       Cu417   2.003       .  S
O409        C419   1.277       .  A
O410       Cu417   2.005       .  S
O410        C420   1.277   1_556  A
O411       Cu417   2.005       .  S
O411        C421   1.277       .  A
O412       Cu417   2.006       .  S
O412        C422   1.278   1_556  A
O413       Cu418   2.010       .  S
O413        C422   1.278       .  A
O414       Cu418   2.021       .  S
O414        C421   1.280   1_554  A
O415       Cu418   2.024       .  S
O415        C420   1.279       .  A
O416       Cu418   2.014       .  S
O416        C419   1.278   1_554  A
Cu417      Cu418   2.374   1_556  S
C419        C784   1.473       .  S
C420        C477   1.472       .  S
C421       C1095   1.482       .  S
C422        C448   1.466       .  S
O423       Cu431   2.020       .  S
O423        C433   1.279       .  A
O424       Cu431   2.018       .  S
O424        C434   1.279       .  A
O425       Cu431   2.014       .  S
O425        C435   1.278       .  A
O426       Cu431   2.010       .  S
O426        C436   1.277       .  A
O427       Cu432   2.011       .  S
O427        C436   1.278       .  A
O428       Cu432   2.004       .  S
O428        C435   1.277       .  A
O429       Cu432   2.004       .  S
O429        C434   1.277       .  A
O430       Cu432   2.012       .  S
O430        C433   1.278       .  A
Cu431      Cu432   2.374       .  S
C433       C1081   1.484       .  S
C434        C463   1.468       .  S
C435        C770   1.478       .  S
C436        C492   1.468       .  S
O437       Cu445   2.012       .  S
O437        C447   1.278       .  A
O438       Cu445   2.014       .  S
O438        C448   1.278       .  A
O439       Cu445   2.013       .  S
O439        C449   1.279       .  A
O440       Cu445   2.013       .  S
O440        C450   1.278       .  A
O441       Cu446   2.013       .  S
O441        C450   1.279   1_556  A
O442       Cu446   2.003       .  S
O442        C449   1.276   1_556  A
O443       Cu446   2.003       .  S
O443        C448   1.277   1_556  A
O444       Cu446   2.008       .  S
O444        C447   1.278   1_556  A
Cu445      Cu446   2.375   1_554  S
C447       C1162   1.476       .  S
C449        C505   1.466       .  S
C450        C955   1.481       .  S
O451       Cu459   2.002       .  S
O451        C461   1.277       .  A
O452       Cu459   2.020       .  S
O452        C462   1.279       .  A
O453       Cu459   2.013       .  S
O453        C463   1.278       .  A
O454       Cu459   2.019       .  S
O454        C464   1.279       .  A
O455       Cu460   2.009       .  S
O455        C464   1.277       .  A
O456       Cu460   2.009       .  S
O456        C463   1.278       .  A
O457       Cu460   2.014       .  S
O457        C462   1.278       .  A
O458       Cu460   2.009       .  S
O458        C461   1.277       .  A
Cu459      Cu460   2.375       .  S
C461        C520   1.464       .  S
C462        C938   1.483       .  S
C464       C1137   1.477       .  S
O465       Cu473   2.009       .  S
O465        C475   1.276       .  A
O466       Cu473   2.006       .  S
O466        C476   1.276   1_554  A
O467       Cu473   2.026       .  S
O467        C477   1.280       .  A
O468       Cu473   2.028       .  S
O468        C478   1.281   1_554  A
O469       Cu474   1.996       .  S
O469        C478   1.274       .  A
O470       Cu474   2.005       .  S
O470        C477   1.277   1_556  A
O471       Cu474   2.024       .  S
O471        C476   1.280       .  A
O472       Cu474   2.020       .  S
O472        C475   1.279   1_556  A
Cu473      Cu474   2.373   1_554  S
C475        C885   1.476       .  S
C476        C503   1.472       .  S
C478        C756   1.483       .  S
O479       Cu487   2.018       .  S
O479        C489   1.279       .  A
O480       Cu487   2.006       .  S
O480        C490   1.277       .  A
O481       Cu487   2.015       .  S
O481        C491   1.278       .  A
O482       Cu487   2.006       .  S
O482        C492   1.277       .  A
O483       Cu488   2.016       .  S
O483        C492   1.279       .  A
O484       Cu488   2.012       .  S
O484        C491   1.278       .  A
O485       Cu488   2.012       .  S
O485        C490   1.278       .  A
O486       Cu488   2.012       .  S
O486        C489   1.277       .  A
Cu487      Cu488   2.376       .  S
C489        C854   1.476       .  S
C490        C518   1.467       .  S
C491        C742   1.477       .  S
O493       Cu501   2.019       .  S
O493        C503   1.280   1_554  A
O494       Cu501   2.015       .  S
O494        C504   1.279   1_554  A
O495       Cu501   2.002       .  S
O495        C505   1.276       .  A
O496       Cu501   2.013       .  S
O496        C506   1.278   1_554  A
O497       Cu502   2.015       .  S
O497        C506   1.279       .  A
O498       Cu502   2.013       .  S
O498        C505   1.279   1_556  A
O499       Cu502   2.017       .  S
O499        C504   1.279       .  A
O500       Cu502   2.012       .  S
O500        C503   1.277       .  A
Cu501      Cu502   2.373   1_554  S
C504        C812   1.483       .  S
C506       C1025   1.480       .  S
O507       Cu515   2.015       .  S
O507        C517   1.279       .  A
O508       Cu515   2.008       .  S
O508        C518   1.277       .  A
O509       Cu515   2.000       .  S
O509        C519   1.277       .  A
O510       Cu515   2.002       .  S
O510        C520   1.277       .  A
O511       Cu516   2.010       .  S
O511        C520   1.278       .  A
O512       Cu516   2.019       .  S
O512        C519   1.279       .  A
O513       Cu516   2.010       .  S
O513        C518   1.278       .  A
O514       Cu516   2.012       .  S
O514        C517   1.278       .  A
Cu515      Cu516   2.374       .  S
C517        C801   1.482       .  S
C519        C997   1.481       .  S
N521        C526   1.352       .  A
N521        C525   1.353       .  A
N521        H553   1.039       .  S
N522        C529   1.350       .  A
N522        C530   1.349       .  A
N523        C528   1.352       .  A
N523        C527   1.352       .  A
N523        H554   1.041       .  S
N524        C531   1.350       .  A
N524        C532   1.350       .  A
C525        C533   1.387       .  A
C525        C541   1.415       .  A
C526        C542   1.415       .  A
C526        C534   1.387       .  A
C527        C535   1.387       .  A
C527        C544   1.414       .  A
C528        C543   1.415   1_554  A
C528        C536   1.387       .  A
C529        C541   1.410   1_554  A
C529        C537   1.386       .  A
C530        C544   1.409       .  A
C530        C538   1.386       .  A
C531        C539   1.385       .  A
C531        C542   1.409       .  A
C532        C540   1.387       .  A
C532        C543   1.413       .  A
C533        C534   1.376       .  A
C533        H545   1.082       .  S
C534        H546   1.082       .  S
C535        C536   1.379       .  A
C535        H547   1.082       .  S
C536        H548   1.082       .  S
C537        C538   1.371       .  A
C537        H549   1.082       .  S
C538        H550   1.082       .  S
C539        C540   1.372       .  A
C539        H551   1.082       .  S
C540        H552   1.082       .  S
C541        C787   1.489       .  S
C542        C700   1.486       .  S
C543        C728   1.492   1_455  S
C544        C714   1.486       .  S
N555        C560   1.354       .  A
N555        C559   1.353       .  A
N555        H587   1.041       .  S
N556        C563   1.351       .  A
N556        C564   1.352       .  A
N557        C562   1.352       .  A
N557        C561   1.351       .  A
N557        H588   1.040       .  S
N558        C565   1.349       .  A
N558        C566   1.349       .  A
C559        C567   1.386       .  A
C559        C575   1.415       .  A
C560        C576   1.417       .  A
C560        C568   1.387       .  A
C561        C569   1.387       .  A
C561        C578   1.414       .  A
C562        C577   1.414       .  A
C562        C570   1.387       .  A
C563        C575   1.414       .  A
C563        C571   1.387       .  A
C564        C578   1.413       .  A
C564        C572   1.385       .  A
C565        C573   1.387       .  A
C565        C576   1.411       .  A
C566        C574   1.386       .  A
C566        C577   1.409       .  A
C567        C568   1.377       .  A
C567        H579   1.082       .  S
C568        H580   1.082       .  S
C569        C570   1.378       .  A
C569        H581   1.082       .  S
C570        H582   1.082       .  S
C571        C572   1.372       .  A
C571        H583   1.082       .  S
C572        H584   1.082       .  S
C573        C574   1.375       .  A
C573        H585   1.082       .  S
C574        H586   1.083       .  S
C575        C717   1.493       .  S
C576        C773   1.494       .  S
C577        C703   1.485       .  S
C578        C686   1.490   1_455  S
N589        C594   1.353       .  A
N589        C593   1.353       .  A
N589        H621   1.042       .  S
N590        C597   1.350       .  A
N590        C598   1.349       .  A
N591        C596   1.352       .  A
N591        C595   1.352       .  A
N591        H622   1.042       .  S
N592        C599   1.351       .  A
N592        C600   1.352       .  A
C593        C601   1.387       .  A
C593        C609   1.416   1_554  A
C594        C610   1.414       .  A
C594        C602   1.386       .  A
C595        C603   1.387       .  A
C595        C612   1.413       .  A
C596        C611   1.413       .  A
C596        C604   1.386       .  A
C597        C609   1.412       .  A
C597        C605   1.387       .  A
C598        C612   1.410       .  A
C598        C606   1.386       .  A
C599        C607   1.385       .  A
C599        C610   1.413       .  A
C600        C608   1.386       .  A
C600        C611   1.414   1_554  A
C601        C602   1.376       .  A
C601        H613   1.082       .  S
C602        H614   1.082       .  S
C603        C604   1.376       .  A
C603        H615   1.082       .  S
C604        H616   1.082       .  S
C605        C606   1.376       .  A
C605        H617   1.082       .  S
C606        H618   1.083       .  S
C607        C608   1.370       .  A
C607        H619   1.082       .  S
C608        H620   1.080       .  S
C609        C759   1.493       .  S
C610        C672   1.495       .  S
C611        C731   1.496       .  S
C612        C658   1.486       .  S
N623        C628   1.352       .  A
N623        C627   1.354       .  A
N623        H655   1.040       .  S
N624        C631   1.351       .  A
N624        C632   1.351       .  A
N625        C630   1.352       .  A
N625        C629   1.352       .  A
N625        H656   1.040       .  S
N626        C633   1.352       .  A
N626        C634   1.352       .  A
C627        C635   1.386       .  A
C627        C643   1.414       .  A
C628        C644   1.415       .  A
C628        C636   1.387       .  A
C629        C637   1.387       .  A
C629        C646   1.413       .  A
C630        C645   1.413       .  A
C630        C638   1.387       .  A
C631        C643   1.413       .  A
C631        C639   1.385       .  A
C632        C646   1.413       .  A
C632        C640   1.386       .  A
C633        C641   1.387       .  A
C633        C644   1.416       .  A
C634        C642   1.386       .  A
C634        C645   1.414       .  A
C635        C636   1.375       .  A
C635        H647   1.082       .  S
C636        H648   1.082       .  S
C637        C638   1.375       .  A
C637        H649   1.082       .  S
C638        H650   1.082       .  S
C639        C640   1.370       .  A
C639        H651   1.082       .  S
C640        H652   1.082       .  S
C641        C642   1.376       .  A
C641        H653   1.082       .  S
C642        H654   1.082       .  S
C643        C745   1.494       .  S
C644        C675   1.493       .  S
C645        C689   1.490       .  S
C646        C661   1.489       .  S
C657        C658   1.402       .  A
C657        C662   1.402       .  A
C657        H664   1.084       .  S
C658        C659   1.412       .  A
C659        C660   1.400       .  A
C659        N666   1.434       .  S
C660        C661   1.403       .  A
C660        H665   1.084       .  S
C661        C662   1.414       .  A
C662        N663   1.437       .  S
N663        O667   1.263       .  A
N663        O668   1.262       .  A
N666        O670   1.262       .  A
N666        O669   1.262       .  A
C671        C672   1.406       .  A
C671        C676   1.402       .  A
C671        H678   1.084       .  S
C672        C673   1.415       .  A
C673        C674   1.402       .  A
C673        N680   1.435       .  S
C674        C675   1.404       .  A
C674        H679   1.084       .  S
C675        C676   1.413       .  A
C676        N677   1.436       .  S
N677        O681   1.262       .  A
N677        O682   1.263       .  A
N680        O684   1.261       .  A
N680        O683   1.263       .  A
C685        C686   1.405       .  A
C685        C690   1.402       .  A
C685        H692   1.084       .  S
C686        C687   1.419       .  A
C687        C688   1.406       .  A
C687        N694   1.443       .  S
C688        C689   1.403       .  A
C688        H693   1.084       .  S
C689        C690   1.410       .  A
C690        N691   1.435       .  S
N691        O695   1.262       .  A
N691        O696   1.263       .  A
N694        O698   1.262       .  A
N694        O697   1.262   1_655  A
C699        C700   1.403       .  A
C699        C704   1.403       .  A
C699        H706   1.084       .  S
C700        C701   1.410       .  A
C701        C702   1.401       .  A
C701        N708   1.435       .  S
C702        C703   1.403       .  A
C702        H707   1.084       .  S
C703        C704   1.413       .  A
C704        N705   1.437       .  S
N705        O709   1.262       .  A
N705        O710   1.262       .  A
N708        O712   1.262       .  A
N708        O711   1.263       .  A
C713        C714   1.402       .  A
C713        C718   1.399       .  A
C713        H720   1.084       .  S
C714        C715   1.409       .  A
C715        C716   1.399       .  A
C715        N722   1.431       .  S
C716        C717   1.405       .  A
C716        H721   1.084       .  S
C717        C718   1.413       .  A
C718        N719   1.429       .  S
N719        O723   1.259       .  A
N719        O724   1.262       .  A
N722        O726   1.262       .  A
N722        O725   1.262       .  A
C727        C728   1.403       .  A
C727        C732   1.399       .  A
C727        H734   1.084       .  S
C728        C729   1.413   1_556  A
C729        C730   1.402       .  A
C729        N736   1.436       .  S
C730        C731   1.406   1_554  A
C730        H735   1.084       .  S
C731        C732   1.416       .  A
C732        N733   1.434       .  S
N733        O737   1.261       .  A
N733        O738   1.263       .  A
N736        O740   1.262   1_655  A
N736        O739   1.262       .  A
C741        C742   1.402       .  A
C741        C746   1.403       .  A
C741        H748   1.084       .  S
C742        C743   1.411       .  A
C743        C744   1.402       .  A
C743        N750   1.432       .  S
C744        C745   1.405       .  A
C744        H749   1.084       .  S
C745        C746   1.415       .  A
C746        N747   1.436       .  S
N747        O751   1.263       .  A
N747        O752   1.262       .  A
N750        O754   1.262       .  A
N750        O753   1.262       .  A
C755        C756   1.405   1_554  A
C755        C760   1.403       .  A
C755        H762   1.084       .  S
C756        C757   1.418       .  A
C757        C758   1.402       .  A
C757        N764   1.434       .  S
C758        C759   1.402       .  A
C758        H763   1.084       .  S
C759        C760   1.411   1_556  A
C760        N761   1.434       .  S
N761        O765   1.262       .  A
N761        O766   1.262       .  A
N764        O768   1.262       .  A
N764        O767   1.262       .  A
C769        C770   1.402       .  A
C769        C774   1.403       .  A
C769        H776   1.084       .  S
C770        C771   1.415       .  A
C771        C772   1.402       .  A
C771        N778   1.436       .  S
C772        C773   1.404       .  A
C772        H777   1.084       .  S
C773        C774   1.417       .  A
C774        N775   1.436       .  S
N775        O779   1.262       .  A
N775        O780   1.263       .  A
N778        O782   1.263       .  A
N778        O781   1.262       .  A
C783        C784   1.402       .  A
C783        C788   1.401       .  A
C783        H790   1.084       .  S
C784        C785   1.409   1_556  A
C785        C786   1.399       .  A
C785        N792   1.429       .  S
C786        C787   1.405   1_554  A
C786        H791   1.084       .  S
C787        C788   1.412       .  A
C788        N789   1.433       .  S
N789        O793   1.262       .  A
N789        O794   1.262       .  A
N792        O796   1.262       .  A
N792        O795   1.262       .  A
C797        C798   1.405       .  A
C797        C802   1.400       .  A
C797        H804   1.084       .  S
C798        C799   1.418       .  A
C799        C800   1.405       .  A
C799        N806   1.437       .  S
C800        C801   1.403       .  A
C800        H805   1.084       .  S
C801        C802   1.412       .  A
C802        N803   1.429       .  S
N803        O807   1.262       .  A
N803        O808   1.262       .  A
N806        O810   1.263       .  A
N806        O809   1.263       .  A
C811        C812   1.403       .  A
C811        C816   1.406       .  A
C811        H818   1.084       .  S
C812        C813   1.411   1_556  A
C813        C814   1.402       .  A
C813        N820   1.431       .  S
C814        C815   1.406   1_554  A
C814        H819   1.084       .  S
C815        C816   1.418       .  A
C816        N817   1.437       .  S
N817        O821   1.263       .  A
N817        O822   1.263       .  A
N820        O824   1.262       .  A
N820        O823   1.262       .  A
C825        C826   1.402       .  A
C825        C830   1.403       .  A
C825        H832   1.084       .  S
C826        C827   1.411       .  A
C827        C828   1.401       .  A
C827        N834   1.434       .  S
C828        C829   1.403       .  A
C828        H833   1.084       .  S
C829        C830   1.415       .  A
C830        N831   1.438       .  S
N831        O835   1.262       .  A
N831        O836   1.262       .  A
N834        O838   1.262       .  A
N834        O837   1.262       .  A
C839        C840   1.405       .  A
C839        C844   1.401       .  A
C839        H846   1.084       .  S
C840        C841   1.416       .  A
C841        C842   1.403       .  A
C841        N848   1.437       .  S
C842        C843   1.404       .  A
C842        H847   1.084       .  S
C843        C844   1.413       .  A
C844        N845   1.437       .  S
N845        O849   1.262       .  A
N845        O850   1.263       .  A
N848        O852   1.262       .  A
N848        O851   1.263       .  A
C853        C854   1.404       .  A
C853        C858   1.404       .  A
C853        H860   1.084       .  S
C854        C855   1.414       .  A
C855        C856   1.403       .  A
C855        N862   1.436       .  S
C856        C857   1.401       .  A
C856        H861   1.084       .  S
C857        C858   1.409       .  A
C858        N859   1.433       .  S
N859        O863   1.263       .  A
N859        O864   1.262       .  A
N862        O866   1.262       .  A
N862        O865   1.262       .  A
C867        C868   1.405       .  A
C867        C872   1.402       .  A
C867        H874   1.084       .  S
C868        C869   1.420       .  A
C869        C870   1.408       .  A
C869        N876   1.441       .  S
C870        C871   1.404   1_545  A
C870        H875   1.084   1_545  S
C871        C872   1.412   1_565  A
C872        N873   1.434   1_545  S
N873        O877   1.262       .  A
N873        O878   1.262       .  A
N876        O880   1.263       .  A
N876        O879   1.262       .  A
C881        C882   1.404   1_556  A
C881        C886   1.401       .  A
C881        H888   1.084       .  S
C882        C883   1.414       .  A
C883        C884   1.405       .  A
C883        N890   1.437       .  S
C884        C885   1.403       .  A
C884        H889   1.084       .  S
C885        C886   1.407   1_554  A
C886        N887   1.429       .  S
N887        O891   1.262       .  A
N887        O892   1.262       .  A
N890        O894   1.263       .  A
N890        O893   1.262       .  A
C895        C896   1.403       .  A
C895        C900   1.401       .  A
C895        H902   1.084       .  S
C896        C897   1.414       .  A
C897        C898   1.402       .  A
C897        N904   1.436       .  S
C898        C899   1.403       .  A
C898        H903   1.084       .  S
C899        C900   1.413       .  A
C900        N901   1.436       .  S
N901        O905   1.262       .  A
N901        O906   1.263       .  A
N904        O908   1.262       .  A
N904        O907   1.262       .  A
C909        C910   1.405       .  A
C909        C914   1.401       .  A
C909        H916   1.084       .  S
C910        C911   1.411       .  A
C911        C912   1.398       .  A
C911        N918   1.428       .  S
C912        C913   1.402       .  A
C912        H917   1.084       .  S
C913        C914   1.410       .  A
C914        N915   1.432       .  S
N915        O919   1.262       .  A
N915        O920   1.262       .  A
N918        O922   1.262       .  A
N918        O921   1.260       .  A
C923        C924   1.401   1_545  A
C923        C928   1.403       .  A
C923        H930   1.084       .  S
C924        C925   1.408   1_566  A
C925        C926   1.400       .  A
C925        N932   1.429   1_545  S
C926        C927   1.403       .  A
C926        H931   1.084       .  S
C927        C928   1.413   1_554  A
C928        N929   1.435       .  S
N929        O933   1.262       .  A
N929        O934   1.263       .  A
N932        O936   1.262       .  A
N932        O935   1.262       .  A
C937        C938   1.403       .  A
C937        C942   1.405       .  A
C937        H944   1.084       .  S
C938        C939   1.414       .  A
C939        C940   1.405       .  A
C939        N946   1.434       .  S
C940        C941   1.406       .  A
C940        H945   1.084       .  S
C941        C942   1.416       .  A
C942        N943   1.436       .  S
N943        O947   1.263       .  A
N943        O948   1.262       .  A
N946        O950   1.262       .  A
N946        O949   1.262       .  A
C951        C952   1.406       .  A
C951        C956   1.402       .  A
C951        H958   1.084       .  S
C952        C953   1.417   1_554  A
C953        C954   1.405       .  A
C953        N960   1.437       .  S
C954        C955   1.404   1_556  A
C954        H959   1.084       .  S
C955        C956   1.411       .  A
C956        N957   1.432       .  S
N957        O961   1.262       .  A
N957        O962   1.262       .  A
N960        O964   1.262       .  A
N960        O963   1.263       .  A
C965        C966   1.404       .  A
C965        C970   1.401       .  A
C965        H972   1.084       .  S
C966        C967   1.415       .  A
C967        C968   1.404       .  A
C967        N974   1.438       .  S
C968        C969   1.403       .  A
C968        H973   1.084       .  S
C969        C970   1.410       .  A
C970        N971   1.432       .  S
N971        O975   1.262       .  A
N971        O976   1.262       .  A
N974        O978   1.263       .  A
N974        O977   1.262       .  A
C979        C980   1.403       .  A
C979        C984   1.402       .  A
C979        H986   1.084       .  S
C980        C981   1.412       .  A
C981        C982   1.401       .  A
C981        N988   1.433       .  S
C982        C983   1.404       .  A
C982        H987   1.084       .  S
C983        C984   1.417       .  A
C984        N985   1.438       .  S
N985        O989   1.263       .  A
N985        O990   1.262       .  A
N988        O992   1.262       .  A
N988        O991   1.262       .  A
C993        C994   1.407       .  A
C993        C998   1.402       .  A
C993       H1000   1.084       .  S
C994        C995   1.413       .  A
C995        C996   1.401       .  A
C995       N1002   1.432       .  S
C996        C997   1.404       .  A
C996       H1001   1.084       .  S
C997        C998   1.410       .  A
C998        N999   1.429       .  S
N999       O1003   1.262       .  A
N999       O1004   1.262       .  A
N1002      O1006   1.261       .  A
N1002      O1005   1.262       .  A
C1007      C1008   1.403       .  A
C1007      C1012   1.399       .  A
C1007      H1014   1.084       .  S
C1008      C1009   1.414       .  A
C1009      C1010   1.404       .  A
C1009      N1016   1.436       .  S
C1010      C1011   1.406       .  A
C1010      H1015   1.084       .  S
C1011      C1012   1.415       .  A
C1012      N1013   1.430       .  S
N1013      O1017   1.260       .  A
N1013      O1018   1.262       .  A
N1016      O1020   1.262       .  A
N1016      O1019   1.262       .  A
C1021      C1022   1.405       .  A
C1021      C1026   1.401       .  A
C1021      H1028   1.084       .  S
C1022      C1023   1.413   1_556  A
C1023      C1024   1.404       .  A
C1023      N1030   1.433       .  S
C1024      C1025   1.404   1_554  A
C1024      H1029   1.084       .  S
C1025      C1026   1.411       .  A
C1026      N1027   1.429       .  S
N1027      O1031   1.262       .  A
N1027      O1032   1.262       .  A
N1030      O1034   1.262       .  A
N1030      O1033   1.262       .  A
C1035      C1036   1.404       .  A
C1035      C1040   1.400       .  A
C1035      H1042   1.084       .  S
C1036      C1037   1.414       .  A
C1037      C1038   1.405       .  A
C1037      N1044   1.436       .  S
C1038      C1039   1.405       .  A
C1038      H1043   1.084       .  S
C1039      C1040   1.411       .  A
C1040      N1041   1.431       .  S
N1041      O1045   1.262       .  A
N1041      O1046   1.261       .  A
N1044      O1048   1.263       .  A
N1044      O1047   1.262       .  A
C1049      C1050   1.405       .  A
C1049      C1054   1.401       .  A
C1049      H1056   1.084       .  S
C1050      C1051   1.420       .  A
C1051      C1052   1.406       .  A
C1051      N1058   1.439       .  S
C1052      C1053   1.401       .  A
C1052      H1057   1.084       .  S
C1053      C1054   1.410       .  A
C1054      N1055   1.434       .  S
N1055      O1059   1.262       .  A
N1055      O1060   1.262       .  A
N1058      O1062   1.262       .  A
N1058      O1061   1.263       .  A
C1063      C1064   1.404   1_556  A
C1063      C1068   1.400       .  A
C1063      H1070   1.084       .  S
C1064      C1065   1.420       .  A
C1065      C1066   1.406       .  A
C1065      N1072   1.440       .  S
C1066      C1067   1.401       .  A
C1066      H1071   1.084       .  S
C1067      C1068   1.410   1_554  A
C1068      N1069   1.435       .  S
N1069      O1073   1.262       .  A
N1069      O1074   1.263   1_655  A
N1072      O1076   1.262       .  A
N1072      O1075   1.262       .  A
C1077      C1078   1.405       .  A
C1077      C1082   1.401       .  A
C1077      H1084   1.084       .  S
C1078      C1079   1.417       .  A
C1079      C1080   1.406       .  A
C1079      N1086   1.436       .  S
C1080      C1081   1.404       .  A
C1080      H1085   1.084       .  S
C1081      C1082   1.411       .  A
C1082      N1083   1.429       .  S
N1083      O1087   1.262       .  A
N1083      O1088   1.262       .  A
N1086      O1090   1.263       .  A
N1086      O1089   1.262       .  A
C1091      C1092   1.406   1_554  A
C1091      C1096   1.401       .  A
C1091      H1098   1.084       .  S
C1092      C1093   1.417       .  A
C1093      C1094   1.404       .  A
C1093      N1100   1.437       .  S
C1094      C1095   1.405       .  A
C1094      H1099   1.084       .  S
C1095      C1096   1.412   1_556  A
C1096      N1097   1.432       .  S
N1097      O1101   1.262       .  A
N1097      O1102   1.262       .  A
N1100      O1104   1.262       .  A
N1100      O1103   1.263       .  A
C1105      C1106   1.403       .  A
C1105      C1110   1.403       .  A
C1105      H1112   1.084       .  S
C1106      C1107   1.414       .  A
C1107      C1108   1.401       .  A
C1107      N1114   1.436       .  S
C1108      C1109   1.403       .  A
C1108      H1113   1.084       .  S
C1109      C1110   1.415       .  A
C1110      N1111   1.436       .  S
N1111      O1115   1.263       .  A
N1111      O1116   1.262       .  A
N1114      O1118   1.262       .  A
N1114      O1117   1.262       .  A
C1119      C1120   1.403       .  A
C1119      C1124   1.400       .  A
C1119      H1126   1.084       .  S
C1120      C1121   1.415       .  A
C1121      C1122   1.404       .  A
C1121      N1128   1.437       .  S
C1122      C1123   1.404       .  A
C1122      H1127   1.084       .  S
C1123      C1124   1.410       .  A
C1124      N1125   1.431       .  S
N1125      O1129   1.262       .  A
N1125      O1130   1.262       .  A
N1128      O1132   1.262       .  A
N1128      O1131   1.262       .  A
C1133      C1134   1.403       .  A
C1133      C1138   1.403       .  A
C1133      H1140   1.084       .  S
C1134      C1135   1.412       .  A
C1135      C1136   1.403       .  A
C1135      N1142   1.434       .  S
C1136      C1137   1.403       .  A
C1136      H1141   1.084       .  S
C1137      C1138   1.414       .  A
C1138      N1139   1.433       .  S
N1139      O1143   1.262       .  A
N1139      O1144   1.262       .  A
N1142      O1146   1.263       .  A
N1142      O1145   1.262       .  A
C1147      C1148   1.404   1_545  A
C1147      C1152   1.404       .  A
C1147      H1154   1.084   1_545  S
C1148      C1149   1.409   1_565  A
C1149      C1150   1.401       .  A
C1149      N1156   1.434   1_545  S
C1150      C1151   1.405       .  A
C1150      H1155   1.084       .  S
C1151      C1152   1.417       .  A
C1152      N1153   1.440       .  S
N1153      O1157   1.262       .  A
N1153      O1158   1.263       .  A
N1156      O1160   1.263       .  A
N1156      O1159   1.262   1_565  A
C1161      C1162   1.402       .  A
C1161      C1166   1.404       .  A
C1161      H1168   1.083       .  S
C1162      C1163   1.410   1_554  A
C1163      C1164   1.399       .  A
C1163      N1170   1.430       .  S
C1164      C1165   1.405       .  A
C1164      H1169   1.084       .  S
C1165      C1166   1.416   1_556  A
C1166      N1167   1.436       .  S
N1167      O1171   1.262       .  A
N1167      O1172   1.263       .  A
N1170      O1174   1.262       .  A
N1170      O1173   1.262       .  A
C1175      C1176   1.405       .  A
C1175      C1180   1.402       .  A
C1175      H1182   1.084       .  S
C1176      C1177   1.409       .  A
C1177      C1178   1.399       .  A
C1177      N1184   1.431       .  S
C1178      C1179   1.403       .  A
C1178      H1183   1.084       .  S
C1179      C1180   1.412       .  A
C1180      N1181   1.437       .  S
N1181      O1185   1.262       .  A
N1181      O1186   1.262       .  A
N1184      O1188   1.262       .  A
N1184      O1187   1.262       .  A
C1189      C1190   1.406       .  A
C1189      C1194   1.401       .  A
C1189      H1196   1.084       .  S
C1190      C1191   1.418       .  A
C1191      C1192   1.403       .  A
C1191      N1198   1.439       .  S
C1192      C1193   1.403       .  A
C1192      H1197   1.084       .  S
C1193      C1194   1.410       .  A
C1194      N1195   1.436       .  S
N1195      O1199   1.263       .  A
N1195      O1200   1.262       .  A
N1198      O1202   1.262       .  A
N1198      O1201   1.263       .  A
C1203      C1204   1.405   1_554  A
C1203      C1208   1.403       .  A
C1203      H1210   1.084       .  S
C1204      C1205   1.414       .  A
C1205      C1206   1.400       .  A
C1205      N1212   1.436       .  S
C1206      C1207   1.403   1_546  A
C1206      H1211   1.084   1_545  S
C1207      C1208   1.413   1_565  A
C1208      N1209   1.437   1_545  S
N1209      O1213   1.262       .  A
N1209      O1214   1.262   1_565  A
N1212      O1216   1.262       .  A
N1212      O1215   1.263       .  A
