geometry optimzed in LAMMPS
_audit_creation_date              2020-12-01 
_audit_creation_method            'lammps2cif' 
_symmetry_space_group_name_H-M    'P1' 
_symmetry_Int_Tables_number       1 
_symmetry_cell_setting            triclinic 
loop_ 
_symmetry_equiv_pos_as_xyz 
  x,y,z 
_cell_length_a                    46.15145579 
_cell_length_b                    48.00684700558246 
_cell_length_c                    24.214182844300993 
_cell_angle_alpha                 98.13718433740229 
_cell_angle_beta                  92.6171468172582 
_cell_angle_gamma                 115.32047917129347 
loop_ 
_atom_site_label 
_atom_site_type_symbol 
_atom_site_fract_x 
_atom_site_fract_y 
_atom_site_fract_z 
_atom_site_charge 
O1          O  0.46560790  0.10351835  0.11236952    -0.80400
O2          O  0.47920558  0.11873991  0.36273385    -0.65000
O3          O  0.43803885  0.09588167  0.21250047    -1.11700
C4          C  0.43961830  0.19292779  0.23486666     1.06500
O5          O  0.45911191  0.15176085  0.39554357    -0.78300
O6          O  0.40544078  0.12678427  0.31428316    -0.65800
Ni7        Ni  0.44800471  0.07103089  0.15683123     1.34900
C8          C  0.38769637  0.11880017  0.26743350     0.85300
O9          O  0.44910686  0.06227686  0.28917251    -0.78800
O10         O  0.43098353  0.03759702  0.19883655    -0.89100
C11         C  0.47780800  0.13888569  0.40165823     0.84800
O12         O  0.98978970  0.07943839  0.18374938    -0.67300
O13         O  0.42913587  0.18332322  0.27950696    -0.86600
C14         C  0.00918039  0.09851006  0.22545116     0.85700
C15         C  0.43569147  0.03731531  0.25122412     1.07200
H16         H  0.48697143  0.16160141  0.28425648     0.39000
O17         O  0.46426865  0.14751522  0.28141382    -1.09200
O18         O  0.40006786  0.12505377  0.22123609    -0.65900
Ni19       Ni  0.44547362  0.13721416  0.20497829     1.26300
O20         O  0.50082270  0.11481991  0.26671708    -0.66100
O21         O  0.45200581  0.17907652  0.20229445    -0.78400
C22         C  0.45291346  0.12019985  0.09537216     0.85100
O23         O  0.43365650  0.12721123  0.12447677    -0.65600
Ni24       Ni  0.44407387  0.16485110  0.33305860     1.27400
Ni25       Ni  0.45807626  0.10572867  0.28711940     1.26100
H26         H  0.41529897  0.08368689  0.21414968     0.39600
O27         O  0.35107604  0.31389931  0.10033916    -0.80400
O28         O  0.37039969  0.31094514  0.36414302    -0.65000
O29         O  0.35075613  0.32188641  0.21614841    -1.11700
C30         C  0.46427575  0.38684652  0.24705370     1.06500
O31         O  0.39492447  0.36302361  0.38659268    -0.78300
O32         O  0.42393279  0.40711320  0.32452305    -0.65800
Ni33       Ni  0.33652264  0.28726322  0.15552503     1.34900
C34         C  0.40668471  0.41078952  0.28666881     0.85300
O35         O  0.31806844  0.27947194  0.28724217    -0.78800
O36         O  0.31703499  0.25610183  0.20096051    -0.89100
C37         C  0.37773444  0.33643043  0.39860013     0.84800
O38         O  0.37689553  0.28465305  0.16737994    -0.67300
O39         O  0.46362871  0.38183046  0.29748007    -0.86600
C40         C  0.38632999  0.27785705  0.21198921     0.85700
C41         C  0.30896833  0.25472979  0.25026576     1.07200
H42         H  0.41567787  0.33141706  0.27198149     0.39000
O43         O  0.40269964  0.34223220  0.28148117    -1.09200
O44         O  0.38733197  0.38783121  0.24921381    -0.65900
Ni45       Ni  0.39432600  0.35266839  0.21380934     1.26300
O46         O  0.37527856  0.28174564  0.25870103    -0.66100
O47         O  0.43908973  0.37985808  0.21285608    -0.78400
C48         C  0.36535231  0.34331093  0.10213289     0.85100
O49         O  0.38347251  0.36247477  0.14482029    -0.65600
Ni50       Ni  0.42911325  0.37205060  0.34206729     1.27400
Ni51       Ni  0.36024098  0.31275291  0.28731779     1.26100
H52         H  0.33587545  0.33120114  0.21845431     0.39600
O53         O  0.18602113  0.04321360  0.39553221    -0.80400
O54         O  0.20569619  0.05757983  0.14869409    -0.65000
O55         O  0.18048175  0.06840827  0.29857723    -1.11700
C56         C  0.09078478  0.47373416  0.22414129     1.06500
O57         O  0.15878218  0.05362465  0.13001236    -0.78300
O58         O  0.10882002  0.04319582  0.18228205    -0.65800
Ni59       Ni  0.20839059  0.08179769  0.36528257     1.34900
C60         C  0.10618224  0.05494210  0.23055251     0.85300
O61         O  0.22798999  0.10744949  0.24283713    -0.78800
O62         O  0.23090559  0.12067723  0.33793768    -0.89100
C63         C  0.18137199  0.04878666  0.11194331     0.84800
O64         O  0.24090056  0.06983299  0.34071043    -0.67300
O65         O  0.09744989  0.48137789  0.17664338    -0.86600
C66         C  0.24851428  0.06432007  0.29200262     0.85700
C67         C  0.23789108  0.12742864  0.28911650     1.07200
H68         H  0.16596352  0.00860134  0.21065611     0.39000
O69         O  0.15867516  0.02481398  0.21522694    -1.09200
O70         O  0.11770289  0.04956560  0.27449184    -0.65900
Ni71       Ni  0.14474480  0.02840366  0.28755047     1.26300
O72         O  0.22704944  0.05170200  0.24919486    -0.66100
O73         O  0.10846578  0.48817478  0.27088151    -0.78400
C74         C  0.15581492  0.02977730  0.40092312     0.85100
O75         O  0.13587474  0.03114944  0.36447713    -0.65600
Ni76       Ni  0.12853257  0.01789881  0.15307398     1.27400
Ni77       Ni  0.19501442  0.06525028  0.22631798     1.26100
H78         H  0.17230500  0.08390281  0.29940672     0.39600
O79         O  0.37250254  0.41438184  0.89528984    -0.80400
O80         O  0.36244283  0.39774996  0.64507851    -0.65000
O81         O  0.34554664  0.41703146  0.79368510    -1.11700
C82         C  0.26477430  0.31710875  0.77348760     1.06500
O83         O  0.31328434  0.35924690  0.61326448    -0.78300
O84         O  0.28089825  0.38013689  0.68929142    -0.65800
Ni85       Ni  0.37732604  0.44548358  0.85047114     1.34900
C86         C  0.27425194  0.39002321  0.73645893     0.85300
O87         O  0.37758843  0.45340927  0.71724959    -0.78800
O88         O  0.38298009  0.47722705  0.80688918    -0.89100
C89         C  0.34233024  0.37619038  0.60661315     0.84800
O90         O  0.41423310  0.44279723  0.82323176    -0.67300
O91         O  0.26121736  0.32460856  0.72640299    -0.86600
C92         C  0.41900089  0.42735138  0.78059546     0.85700
C93         C  0.38403078  0.47801274  0.75438020     1.07200
H94         H  0.34068130  0.35365460  0.72515743     0.39000
O95         O  0.32820172  0.36551722  0.72669948    -1.09200
O96         O  0.28287433  0.38333645  0.78220267    -0.65900
Ni97       Ni  0.31989994  0.37498290  0.80187994     1.26300
O98         O  0.39584033  0.40810917  0.74319260    -0.66100
O99         O  0.29106153  0.33210578  0.80642625    -0.78400
C100        C  0.34633331  0.39494631  0.90978647     0.85100
O101        O  0.31920932  0.38639339  0.88057113    -0.65600
Ni102      Ni  0.28992141  0.34471670  0.67432704     1.27400
Ni103      Ni  0.35481315  0.40891991  0.72037456     1.26100
H104        H  0.33157670  0.42712631  0.79055797     0.39600
O105        O  0.13020046  0.44267864  0.60080929    -0.80400
O106        O  0.14397126  0.45263750  0.85621719    -0.65000
O107        O  0.10435184  0.43348072  0.70438029    -1.11700
C108        C  0.10668865  0.03030574  0.71633255     1.06500
O109        O  0.13032590  0.49090770  0.88718706    -0.78300
O110        O  0.07438387  0.47029017  0.81237611    -0.65800
Ni111      Ni  0.11365343  0.40923511  0.64612394     1.34900
C112        C  0.05676751  0.46154522  0.76507696     0.85300
O113        O  0.11053819  0.39774737  0.77988665    -0.78800
O114        O  0.09718624  0.37512824  0.68825319    -0.89100
C115        C  0.14382886  0.47350544  0.89504766     0.84800
O116        O  0.15639317  0.41755383  0.67472360    -0.67300
O117        O  0.10208743  0.02604535  0.76598731    -0.86600
C118        C  0.17435794  0.43237654  0.72054347     0.85700
C119        C  0.09798786  0.37331160  0.74083940     1.07200
H120        H  0.15638665  0.49722225  0.77446844     0.39000
O121        O  0.13341427  0.48472605  0.77344299    -1.09200
O122        O  0.06897611  0.46505663  0.71834577    -0.65900
Ni123      Ni  0.11286335  0.47490312  0.69797380     1.26300
O124        O  0.16578401  0.44696641  0.75957706    -0.66100
O125        O  0.11839380  0.01555063  0.68458358    -0.78400
C126        C  0.11664712  0.45979516  0.58825357     0.85100
O127        O  0.09708054  0.46409303  0.61982573    -0.65600
Ni128      Ni  0.11651745  0.50519229  0.82684601     1.27400
Ni129      Ni  0.12381695  0.44189089  0.77908669     1.26100
H130        H  0.08145926  0.42178848  0.70547079     0.39600
O131        O  0.05346501  0.14977180  0.63395989    -0.80400
O132        O  0.02135521  0.14188779  0.85841842    -0.65000
O133        O  0.02411601  0.16339881  0.71368538    -1.11700
C134        C  0.13207406  0.23441877  0.79225506     1.06500
O135        O  0.03601925  0.19149589  0.89431632    -0.78300
O136        O  0.06501443  0.24124326  0.83628048    -0.65800
Ni137      Ni  0.01059331  0.13125564  0.64991259     1.34900
C138        C  0.06208675  0.24725871  0.78733349     0.85300
O139        O  0.47965453  0.11534870  0.76436196    -0.78800
O140        O  0.47139355  0.10910714  0.67007383    -0.89100
C141        C  0.02048244  0.16228421  0.89727812     0.84800
O142        O  0.02052687  0.10074689  0.67606473    -0.67300
O143        O  0.12007636  0.23272081  0.83941561    -0.86600
C144        C  0.03880494  0.10371271  0.71899493     0.85700
C145        C  0.46262471  0.10078031  0.71664910     1.07200
H146        H  0.07945952  0.17263747  0.80385701     0.39000
O147        O  0.06533273  0.18235054  0.79887782    -1.09200
O148        O  0.06066121  0.22875472  0.74276605    -0.65900
Ni149      Ni  0.06947134  0.19286986  0.72595459     1.26300
O150        O  0.04221496  0.12250476  0.76402852    -0.66100
O151        O  0.11482229  0.22082702  0.74442977    -0.78400
C152        C  0.05943825  0.17348087  0.61243889     0.85100
O153        O  0.07029560  0.19920253  0.64729746    -0.65600
Ni154      Ni  0.07756462  0.21213925  0.86446024     1.27400
Ni155      Ni  0.02229340  0.15022968  0.78367869     1.26100
H156        H  0.01113251  0.17465929  0.71200843     0.39600
C157        C  0.06371984  0.27882023  0.78139216    -0.04800
C158        C  0.08112330  0.30562819  0.82370325    -0.01900
C159        C  0.09079982  0.33624882  0.81179280     0.03100
C160        C  0.08372803  0.34090182  0.75688354    -0.04800
C161        C  0.06228855  0.31390499  0.71743132    -0.01900
C162        C  0.05214684  0.28339331  0.73002295     0.03100
C163        C  0.08951818  0.30220373  0.88007295     0.37700
C164        C  0.04953426  0.31695006  0.66388958     0.37700
C165        C  0.02862432  0.25655151  0.69064849     0.36100
C166        C  0.10781909  0.36259628  0.85728502     0.36100
N167        N  0.50476085  0.23608454  0.66805459    -0.38700
N168        N  0.12077362  0.38311626  0.89460699    -0.38700
N169        N  0.03917912  0.31905535  0.62106164    -0.38100
N170        N  0.09590312  0.29966160  0.92529369    -0.38100
C171        C  0.09366046  0.05046617  0.69618105    -0.04800
C172        C  0.10942736  0.08258359  0.71893560    -0.01900
C173        C  0.09156868  0.10003909  0.72773738     0.03100
C174        C  0.05758500  0.08521786  0.71388860    -0.04800
C175        C  0.04223942  0.05342789  0.68751482    -0.01900
C176        C  0.06039688  0.03644819  0.67696300     0.03100
C177        C  0.14396821  0.09712692  0.73620728     0.37700
C178        C  0.00734856  0.03716050  0.67599566     0.37700
C179        C  0.04410244  0.00363766  0.65083706     0.36100
C180        C  0.10862410  0.13302915  0.75174687     0.36100
N181        N  0.03881596  0.48218678  0.62387333    -0.38700
N182        N  0.12355168  0.15918898  0.77128262    -0.38700
N183        N  0.97954636  0.02361614  0.66739586    -0.38100
N184        N  0.17150706  0.10867854  0.74988290    -0.38100
C185        C  0.39485270  0.50980185  0.73761814    -0.04800
C186        C  0.39501984  0.03490169  0.76843577    -0.01900
C187        C  0.41553029  0.06566455  0.76168960     0.03100
C188        C  0.43293951  0.07075876  0.71489153    -0.04800
C189        C  0.42493422  0.04510536  0.67018407    -0.01900
C190        C  0.40612383  0.01412313  0.67838968     0.03100
C191        C  0.38125409  0.53188480  0.82772079     0.37700
C192        C  0.93466912  0.05175797  0.61744705     0.37700
C193        C  0.40161346  0.98825564  0.63431442     0.36100
C194        C  0.41861784  0.09217209  0.80291362     0.36100
N195        N  0.39509225  0.46901419  0.60295421    -0.38700
N196        N  0.42112436  0.11335096  0.83569103    -0.38700
N197        N  0.94349928  0.05569153  0.57396146    -0.38100
N198        N  0.36864558  0.52881666  0.86818734    -0.38100
C199        C  0.23536813  0.29152822  0.78888464    -0.04800
C200        C  0.21800506  0.26403138  0.74854572    -0.01900
C201        C  0.18480642  0.24503177  0.75029973     0.03100
C202        C  0.16820588  0.25306806  0.79315978    -0.04800
C203        C  0.18671655  0.27898113  0.83684230    -0.01900
C204        C  0.22007576  0.29768035  0.83491905     0.03100
C205        C  0.23445549  0.25557234  0.70418646     0.37700
C206        C  0.17150726  0.28799174  0.88258389     0.37700
C207        C  0.23833772  0.32399401  0.87962083     0.36100
C208        C  0.16802218  0.21746618  0.70695318     0.36100
N209        N  0.25263995  0.34452998  0.91625878    -0.38700
N210        N  0.15482236  0.19569396  0.67192315    -0.38700
N211        N  0.15977069  0.29545431  0.91945688    -0.38100
N212        N  0.24757412  0.24873849  0.66896344    -0.38100
C213        C  0.20561741  0.43006787  0.72967355    -0.04800
C214        C  0.21475387  0.42332002  0.78097899    -0.01900
C215        C  0.23899996  0.41280350  0.78489194     0.03100
C216        C  0.25425063  0.40818055  0.73717550    -0.04800
C217        C  0.24856619  0.41966997  0.68870730    -0.01900
C218        C  0.22398937  0.42979051  0.68461534     0.03100
C219        C  0.19820929  0.42515977  0.82978860     0.37700
C220        C  0.26853405  0.42220943  0.64329535     0.37700
C221        C  0.21744832  0.43970559  0.63345089     0.36100
C222        C  0.24782352  0.40688116  0.83878754     0.36100
N223        N  0.21219825  0.44744810  0.59250027    -0.38700
N224        N  0.25480844  0.40277568  0.88236173    -0.38700
N225        N  0.28462882  0.42458962  0.60728547    -0.38100
N226        N  0.18614933  0.42628130  0.87031493    -0.38100
C227        C  0.45392614  0.43507740  0.77407621    -0.04800
C228        C  0.47701477  0.46705408  0.78471042    -0.01900
C229        C  0.51033839  0.47561410  0.78472263     0.03100
C230        C  0.02113059  0.45118606  0.76534758    -0.04800
C231        C  0.49858788  0.42089702  0.75593560    -0.01900
C232        C  0.46521487  0.41201409  0.76100014     0.03100
C233        C  0.46674246  0.49179595  0.79513003     0.37700
C234        C  0.00927590  0.39578386  0.73364192     0.37700
C235        C  0.44296302  0.37925043  0.75595695     0.36100
C236        C  0.03285774  0.50634511  0.80262189     0.36100
N237        N  0.42517593  0.35305094  0.75182617    -0.38700
N238        N  0.04967207  0.03479059  0.81207192    -0.38700
N239        N  0.01818210  0.37693050  0.72035212    -0.38100
N240        N  0.45901946  0.51182126  0.80352113    -0.38100
C241        C  0.12666377  0.47800079  0.54058975    -0.04800
C242        C  0.15498545  0.99604337  0.53828918    -0.01900
C243        C  0.16580599  0.01376785  0.49477136     0.03100
C244        C  0.14390008  0.01102575  0.44840188    -0.04800
C245        C  0.11312834  0.49264763  0.45240991    -0.01900
C246        C  0.10376047  0.47487982  0.49648378     0.03100
C247        C  0.17749242  0.00115870  0.58683890     0.37700
C248        C  0.08826488  0.48840861  0.40879815     0.37700
C249        C  0.07027902  0.45282962  0.49610585     0.36100
C250        C  0.19981737  0.03514166  0.49918661     0.36100
N251        N  0.04359903  0.43523949  0.49606607    -0.38700
N252        N  0.22703822  0.05197644  0.50296755    -0.38700
N253        N  0.06811180  0.48501678  0.37458846    -0.38100
N254        N  0.19526366  0.00538258  0.62586559    -0.38100
C255        C  0.17396687  0.02551530  0.05711345    -0.04800
C256        C  0.19823736  0.02406203  0.02447010    -0.01900
C257        C  0.18950479  0.00394034  0.97070549     0.03100
C258        C  0.15773845  0.47854517  0.95444959    -0.04800
C259        C  0.13534551  0.47493405  0.99297949    -0.01900
C260        C  0.14112023  0.00418071  0.03573854     0.03100
C261        C  0.23167993  0.04588980  0.04256741     0.37700
C262        C  0.10317021  0.44910606  0.97909837     0.37700
C263        C  0.11375833  0.00846394  0.05496153     0.36100
C264        C  0.21390920  0.00566163  0.93407427     0.36100
N265        N  0.09104099  0.50637298  0.06506464    -0.38700
N266        N  0.23347146  0.00689283  0.90497182    -0.38700
N267        N  0.07768117  0.42840481  0.96795773    -0.38100
N268        N  0.25834710  0.06358338  0.05687692    -0.38100
C269        C  0.35966082  0.35553897  0.05224978    -0.04800
C270        C  0.37539626  0.35320335  0.00473827    -0.01900
C271        C  0.37048993  0.36563473  0.95781709     0.03100
C272        C  0.34907206  0.37978949  0.95764809    -0.04800
C273        C  0.33243657  0.38108243  0.00454782    -0.01900
C274        C  0.33725036  0.36840525  0.05131531     0.03100
C275        C  0.39617346  0.33747571  0.00389434     0.37700
C276        C  0.31184194  0.39698834  0.00607036     0.37700
C277        C  0.31782877  0.36708505  0.09712148     0.36100
C278        C  0.38782525  0.36403702  0.90987375     0.36100
N279        N  0.30155420  0.36537995  0.13266203    -0.38700
N280        N  0.40195982  0.36302967  0.87198878    -0.38700
N281        N  0.29565480  0.40994078  0.00754875    -0.38100
N282        N  0.41240142  0.32457875  0.00319384    -0.38100
C283        C  0.35248857  0.36750461  0.55206061    -0.04800
C284        C  0.37962905  0.36100385  0.55126601    -0.01900
C285        C  0.38509304  0.34568170  0.50165505     0.03100
C286        C  0.36419403  0.33769492  0.45184149    -0.04800
C287        C  0.33712270  0.34415459  0.45220343    -0.01900
C288        C  0.33129881  0.35903122  0.50196093     0.03100
C289        C  0.40257571  0.37059535  0.60086279     0.37700
C290        C  0.31669217  0.33768913  0.40004237     0.37700
C291        C  0.30443010  0.36718199  0.50070002     0.36100
C292        C  0.41331678  0.33955909  0.50080913     0.36100
N293        N  0.28307240  0.37376869  0.49935892    -0.38700
N294        N  0.43577467  0.33465086  0.50001433    -0.38700
N295        N  0.30065466  0.33278635  0.35831821    -0.38100
N296        N  0.42170348  0.37866517  0.63947216    -0.38100
C297        C  0.25843895  0.16054694  0.28518527    -0.04800
C298        C  0.28211523  0.16734632  0.24803688    -0.01900
C299        C  0.29821494  0.19781019  0.23677457     0.03100
C300        C  0.29199567  0.22266240  0.26445768    -0.04800
C301        C  0.26962173  0.21609389  0.30433915    -0.01900
C302        C  0.25260716  0.18510959  0.31411611     0.03100
C303        C  0.28969244  0.14281584  0.21978934     0.37700
C304        C  0.26236696  0.24061635  0.33274349     0.37700
C305        C  0.22755961  0.17828569  0.35121903     0.36100
C306        C  0.32017634  0.20231605  0.19431273     0.36100
N307        N  0.20746471  0.17275200  0.38058794    -0.38700
N308        N  0.33640555  0.20418678  0.15873547    -0.38700
N309        N  0.25633219  0.26001378  0.35548565    -0.38100
N310        N  0.29585764  0.12372239  0.19610977    -0.38100
C311        C  0.49625066  0.40407901  0.22971564    -0.04800
C312        C  0.00071641  0.42910108  0.20165726    -0.01900
C313        C  0.03199469  0.45156902  0.19939457     0.03100
C314        C  0.05871794  0.44858697  0.22396382    -0.04800
C315        C  0.05429553  0.42217591  0.24751093    -0.01900
C316        C  0.02284014  0.39953370  0.24997150     0.03100
C317        C  0.47422970  0.43299777  0.17598954     0.37700
C318        C  0.08203795  0.41837631  0.26886287     0.37700
C319        C  0.51788665  0.37247727  0.27597158     0.36100
C320        C  0.03553005  0.97937802  0.17314013     0.36100
N321        N  0.51400742  0.35084613  0.29608629    -0.38700
N322        N  0.03784411  0.00095955  0.15421356    -0.38700
N323        N  0.10425562  0.41543141  0.28568187    -0.38100
N324        N  0.45285006  0.43663159  0.15717822    -0.38100
C325        C  0.04451179  0.16775831  0.55265336    -0.04800
C326        C  0.03235808  0.13690101  0.52045822    -0.01900
C327        C  0.00840590  0.12683045  0.47419347     0.03100
C328        C  0.49965888  0.14914532  0.45615319    -0.04800
C329        C  0.51460884  0.18121983  0.48278049    -0.01900
C330        C  0.03663638  0.18973152  0.53078398     0.03100
C331        C  0.04474725  0.11512860  0.53390032     0.37700
C332        C  0.51060497  0.20461236  0.45563476     0.37700
C333        C  0.05134724  0.22222226  0.55850297     0.36100
C334        C  0.99162085  0.09370344  0.45031114     0.36100
N335        N  0.55797273  0.24953793  0.58388441    -0.38700
N336        N  0.97809104  0.06722263  0.43201733    -0.38700
N337        N  0.50789216  0.22342943  0.43376673    -0.38100
N338        N  0.05465829  0.09780398  0.54439155    -0.38100
C339        C  0.46327280  0.13213901  0.04183844    -0.04800
C340        C  0.46087602  0.11043787  0.99382111    -0.01900
C341        C  0.47892782  0.12028969  0.94851740     0.03100
C342        C  0.99985788  0.15175565  0.94506541    -0.04800
C343        C  0.00052242  0.17370180  0.99203835    -0.01900
C344        C  0.98328284  0.16357695  0.03834587     0.03100
C345        C  0.44026306  0.07733588  0.99181149     0.37700
C346        C  0.02022967  0.20702534  0.99505648     0.37700
C347        C  0.98835512  0.18667740  0.08779919     0.36100
C348        C  0.47796961  0.09619741  0.90388397     0.36100
N349        N  0.99400140  0.20655286  0.12568575    -0.38700
N350        N  0.47743009  0.07676372  0.86900910    -0.38700
N351        N  0.03589954  0.23363475  0.99786177    -0.38100
N352        N  0.42382337  0.05098339  0.99016473    -0.38100
C353        C  0.43535680  0.22033624  0.22158150    -0.04800
C354        C  0.42026282  0.21969272  0.16899159    -0.01900
C355        C  0.40907514  0.24245765  0.16275741     0.03100
C356        C  0.40950907  0.26346638  0.21068848    -0.04800
C357        C  0.42876140  0.26676521  0.26078784    -0.01900
C358        C  0.44195994  0.24559643  0.26571623     0.03100
C359        C  0.41263681  0.19369828  0.12332925     0.37700
C360        C  0.43461357  0.29128217  0.30853408     0.37700
C361        C  0.46059570  0.24864291  0.31813499     0.36100
C362        C  0.39523789  0.24262630  0.10786176     0.36100
N363        N  0.47509735  0.25105371  0.36022809    -0.38700
N364        N  0.38425382  0.24279369  0.06403787    -0.38700
N365        N  0.43976121  0.31043816  0.34752131    -0.38100
N366        N  0.40590225  0.17279452  0.08689806    -0.38100
C367        C  0.42620782  0.00597131  0.26737273    -0.04800
C368        C  0.44952709  0.49980899  0.29424878    -0.01900
C369        C  0.44317565  0.46918200  0.30168573     0.03100
C370        C  0.41196751  0.44380447  0.28437747    -0.04800
C371        C  0.38724257  0.45037233  0.26177757    -0.01900
C372        C  0.39413728  0.48095360  0.25222656     0.03100
C373        C  0.48193702  0.02387785  0.31238501     0.37700
C374        C  0.35439739  0.42599201  0.25034880     0.37700
C375        C  0.36985966  0.98792200  0.22451926     0.36100
C376        C  0.46988338  0.46412510  0.32452893     0.36100
N377        N  0.35006608  0.99260961  0.20233873    -0.38700
N378        N  0.49134607  0.46044916  0.34280893    -0.38700
N379        N  0.32810920  0.40659288  0.24234303    -0.38100
N380        N  0.00672774  0.04394885  0.33268687    -0.38100
C381        C  0.35175789  0.10467139  0.27001204    -0.04800
C382        C  0.32958053  0.07726351  0.23331852    -0.01900
C383        C  0.29608795  0.06341257  0.24057542     0.03100
C384        C  0.28430636  0.07628799  0.28575136    -0.04800
C385        C  0.30703346  0.10405720  0.32227208    -0.01900
C386        C  0.33985137  0.11834637  0.31335935     0.03100
C387        C  0.34128987  0.06297740  0.18857368     0.37700
C388        C  0.29724331  0.11944352  0.36879617     0.37700
C389        C  0.36130555  0.14832426  0.34815363     0.36100
C390        C  0.27395728  0.03572256  0.20157753     0.36100
N391        N  0.37823900  0.17216042  0.37586288    -0.38700
N392        N  0.25628786  0.01368077  0.17021188    -0.38700
N393        N  0.29027735  0.13212501  0.40640442    -0.38100
N394        N  0.35068713  0.05160741  0.15280623    -0.38100
C395        C  0.04234932  0.10017936  0.23151945    -0.04800
C396        C  0.05636193  0.09850888  0.28317275    -0.01900
C397        C  0.07759748  0.08420629  0.28424516     0.03100
C398        C  0.08802024  0.07490628  0.23357559    -0.05400
C399        C  0.08019726  0.08472269  0.18416751    -0.01900
C400        C  0.05694482  0.09650656  0.18311807     0.03100
C401        C  0.05022243  0.11271059  0.33516837     0.37700
C402        C  0.09590430  0.08326456  0.13397681     0.37700
C403        C  0.04865774  0.10601600  0.13267405     0.36100
C404        C  0.08756912  0.07851638  0.33749450     0.36100
N405        N  0.04231337  0.11404325  0.09285310    -0.38700
N406        N  0.09515953  0.07396088  0.38026872    -0.38700
N407        N  0.10828418  0.08242365  0.09368133    -0.38100
N408        N  0.04675586  0.12508249  0.37708727    -0.38100
O409        O  0.46398429  0.60111775  0.10873033    -0.80400
O410        O  0.48105928  0.61902999  0.35739927    -0.65000
O411        O  0.43751638  0.59549850  0.20957921    -1.11700
C412        C  0.44062700  0.69324405  0.23024861     1.06500
O413        O  0.46224038  0.65291810  0.39144560    -0.78300
O414        O  0.40717120  0.62836020  0.31221814    -0.65800
Ni415      Ni  0.44560511  0.56917723  0.15404815     1.34900
C416        C  0.38881969  0.62007239  0.26589075     0.85300
O417        O  0.44924530  0.56223600  0.28632087    -0.78800
O418        O  0.42805087  0.53640622  0.19758087    -0.89100
C419        C  0.48046195  0.63941421  0.39662130     0.84800
O420        O  0.98786424  0.57689457  0.18526055    -0.67300
O421        O  0.43149705  0.68469518  0.27634991    -0.86600
C422        C  0.00842399  0.59682185  0.22477849     0.85700
C423        C  0.43443394  0.53679805  0.24981631     1.07200
H424        H  0.48810781  0.66133498  0.27849639     0.39000
O425        O  0.46536802  0.64760693  0.27676355    -1.09200
O426        O  0.40061631  0.62570835  0.21899102    -0.65900
Ni427      Ni  0.44561658  0.63693272  0.20100809     1.26300
O428        O  0.50072278  0.61371232  0.25987422    -0.66100
O429        O  0.45236175  0.67882811  0.19731868    -0.78400
C430        C  0.45254345  0.61880957  0.09191512     0.85100
O431        O  0.43347989  0.62642131  0.12062287    -0.65600
Ni432      Ni  0.44654823  0.66596932  0.32938236     1.27400
Ni433      Ni  0.45871091  0.60572093  0.28310379     1.26100
H434        H  0.41486032  0.58386367  0.21268949     0.39600
O435        O  0.35433675  0.81460812  0.09222171    -0.80400
O436        O  0.36634081  0.80995922  0.35670640    -0.65000
O437        O  0.34965725  0.82188706  0.20775022    -1.11700
C438        C  0.46285784  0.88689207  0.24321714     1.06500
O439        O  0.39223222  0.86189944  0.38007714    -0.78300
O440        O  0.42217654  0.90595245  0.31996214    -0.65800
Ni441      Ni  0.33627058  0.78777388  0.14635849     1.34900
C442        C  0.40526447  0.91022259  0.28248560     0.85300
O443        O  0.31504948  0.77947630  0.27742949    -0.78800
O444        O  0.31405907  0.75670531  0.19071226    -0.89100
C445        C  0.37439674  0.83544468  0.39167162     0.84800
O446        O  0.37524897  0.78313414  0.16112499    -0.67300
O447        O  0.46154908  0.88046907  0.29271188    -0.86600
C448        C  0.38346819  0.77582544  0.20608942     0.85700
C449        C  0.30557645  0.75497664  0.23976589     1.07200
H450        H  0.41324743  0.83019688  0.26527330     0.39000
O451        O  0.40060014  0.84133867  0.27497722    -1.09200
O452        O  0.38598435  0.88773986  0.24409350    -0.65900
Ni453      Ni  0.39327912  0.85283870  0.20771342     1.26300
O454        O  0.37230369  0.78048997  0.25232365    -0.66100
O455        O  0.43805187  0.88039446  0.20857627    -0.78400
C456        C  0.36716954  0.84415390  0.09499685     0.85100
O457        O  0.38325892  0.86334601  0.13912730    -0.65600
Ni458      Ni  0.42671166  0.87054837  0.33646907     1.27400
Ni459      Ni  0.35770098  0.81220345  0.27929529     1.26100
H460        H  0.33475019  0.83117935  0.20923803     0.39600
O461        O  0.18723220  0.54563789  0.39619066    -0.80400
O462        O  0.20589676  0.55656374  0.14792983    -0.65000
O463        O  0.18051030  0.56865993  0.29711464    -1.11700
C464        C  0.09015781  0.97464972  0.22324093     1.06500
O465        O  0.15869750  0.55143617  0.12754558    -0.78300
O466        O  0.10936423  0.54213092  0.18077793    -0.65800
Ni467      Ni  0.20888690  0.58353625  0.36359659     1.34900
C468        C  0.10636038  0.55394412  0.22875888     0.85300
O469        O  0.22710479  0.60741138  0.23960732    -0.78800
O470        O  0.23082341  0.62196254  0.33434267    -0.89100
C471        C  0.18154261  0.54656232  0.11091620     0.84800
O472        O  0.24162740  0.57170005  0.33969524    -0.67300
O473        O  0.09703997  0.98244528  0.17585337    -0.86600
C474        C  0.24928199  0.56576550  0.29118860     0.85700
C475        C  0.23718707  0.62806804  0.28495200     1.07200
H476        H  0.16679585  0.50823157  0.21112463     0.39000
O477        O  0.15913797  0.52418113  0.21505046    -1.09200
O478        O  0.11751590  0.54859278  0.27312770    -0.65900
Ni479      Ni  0.14523533  0.52825211  0.28740587     1.26300
O480        O  0.22776015  0.55255794  0.24857066    -0.66100
O481        O  0.10770463  0.98883987  0.27007602    -0.78400
C482        C  0.15710009  0.53194785  0.40213764     0.85100
O483        O  0.13661408  0.53172338  0.36462801    -0.65600
Ni484      Ni  0.12875806  0.51635037  0.15254222     1.27400
Ni485      Ni  0.19494050  0.56492688  0.22489763     1.26100
H486        H  0.17192238  0.58380868  0.29711395     0.39600
O487        O  0.37055182  0.91407642  0.88859890    -0.80400
O488        O  0.35704981  0.89617559  0.63788730    -0.65000
O489        O  0.34240730  0.91625952  0.78781599    -1.11700
C490        C  0.26268417  0.81621351  0.77211517     1.06500
O491        O  0.30937063  0.85470909  0.60916077    -0.78300
O492        O  0.27729487  0.87735723  0.68401025    -0.65800
Ni493      Ni  0.37487692  0.94491590  0.84351299     1.34900
C494        C  0.27043492  0.88756645  0.73072803     0.85300
O495        O  0.37297765  0.95195715  0.70963994    -0.78800
O496        O  0.38042654  0.97648355  0.79953225    -0.89100
C497        C  0.33749904  0.87328848  0.60074095     0.84800
O498        O  0.41111745  0.94160328  0.81500052    -0.67300
O499        O  0.25825823  0.82336355  0.72513144    -0.86600
C500        C  0.41539630  0.92634098  0.77159412     0.85700
C501        C  0.38089922  0.97687941  0.74680683     1.07200
H502        H  0.33801958  0.85288687  0.72095546     0.39000
O503        O  0.32505263  0.86426440  0.72217962    -1.09200
O504        O  0.27983090  0.88203253  0.77720241    -0.65900
Ni505      Ni  0.31736108  0.87436642  0.79734039     1.26300
O506        O  0.39198778  0.90723875  0.73461306    -0.66100
O507        O  0.28935124  0.83159082  0.80378592    -0.78400
C508        C  0.34463016  0.89475610  0.90387831     0.85100
O509        O  0.31723996  0.88642803  0.87584214    -0.65600
Ni510      Ni  0.28639872  0.84194721  0.67133248     1.27400
Ni511      Ni  0.35058948  0.90760079  0.71391965     1.26100
H512        H  0.32828341  0.92624447  0.78531519     0.39600
O513        O  0.12474315  0.93907914  0.59678058    -0.80400
O514        O  0.14168012  0.95444671  0.85414444    -0.65000
O515        O  0.10093144  0.93283351  0.70208461    -1.11700
C516        C  0.10838134  0.53080720  0.72691501     1.06500
O517        O  0.13302618  0.99650845  0.88064693    -0.78300
O518        O  0.07496645  0.97366187  0.81029052    -0.65800
Ni519      Ni  0.10858838  0.90704261  0.64448815     1.34900
C520        C  0.05623692  0.96339480  0.76398973     0.85300
O521        O  0.10654497  0.89831517  0.78010739    -0.78800
O522        O  0.09251701  0.87430227  0.68907449    -0.89100
C523        C  0.14398909  0.97748634  0.89091804     0.84800
O524        O  0.15143734  0.91528161  0.67164064    -0.67300
O525        O  0.10318144  0.52500734  0.77563230    -0.86600
C526        C  0.17013790  0.93038588  0.71662259     0.85700
C527        C  0.09353980  0.87338508  0.74194725     1.07200
H528        H  0.15504267  0.99686108  0.76640739     0.39000
O529        O  0.13207616  0.98522099  0.76713098    -1.09200
O530        O  0.06717048  0.96555363  0.71603378    -0.65900
Ni531      Ni  0.11010229  0.97387839  0.69256576     1.26300
O532        O  0.16239413  0.94553428  0.75611850    -0.66100
O533        O  0.12028935  0.51685369  0.69363224    -0.78400
C534        C  0.11145465  0.95625797  0.58367941     0.85100
O535        O  0.09239097  0.96132446  0.61541348    -0.65600
Ni536      Ni  0.11718478  0.00835393  0.81920339     1.27400
Ni537      Ni  0.12114847  0.94248329  0.77653748     1.26100
H538        H  0.07808721  0.92168354  0.70423382     0.39600
O539        O  0.05381025  0.64993801  0.63773183    -0.80400
O540        O  0.02036441  0.64302121  0.86169793    -0.65000
O541        O  0.02325449  0.66329108  0.71613100    -1.11700
C542        C  0.13084282  0.73501695  0.79558753     1.06500
O543        O  0.03457527  0.69261365  0.89727386    -0.78300
O544        O  0.06371189  0.74226321  0.83815356    -0.65800
Ni545      Ni  0.01088408  0.63074362  0.65321678     1.34900
C546        C  0.06044505  0.74790036  0.78894541     0.85300
O547        O  0.47897409  0.61548705  0.76465856    -0.78800
O548        O  0.46687357  0.61121268  0.67191376    -0.89100
C549        C  0.01958792  0.66338361  0.90064712     0.84800
O550        O  0.02170919  0.60101121  0.68089656    -0.67300
O551        O  0.11884385  0.73363593  0.84273290    -0.86600
C552        C  0.03904571  0.60404528  0.72521406     0.85700
C553        C  0.45995543  0.60207194  0.71864080     1.07200
H554        H  0.07823424  0.67381740  0.80724146     0.39000
O555        O  0.06399948  0.68332375  0.80204100    -1.09200
O556        O  0.05886859  0.72908230  0.74463043    -0.65900
Ni557      Ni  0.06835036  0.69341224  0.72899909     1.26300
O558        O  0.04154376  0.62306466  0.76939654    -0.66100
O559        O  0.11351519  0.72167691  0.74780665    -0.78400
C560        C  0.05954011  0.67346081  0.61572119     0.85100
O561        O  0.06955570  0.69923259  0.65021948    -0.65600
Ni562      Ni  0.07616288  0.71328504  0.86740167     1.27400
Ni563      Ni  0.02127174  0.65074269  0.78674325     1.26100
H564        H  0.00990299  0.67411036  0.71332616     0.39600
C565        C  0.06160288  0.77933009  0.78262581    -0.04800
C566        C  0.07880465  0.80635726  0.82486867    -0.01900
C567        C  0.08716934  0.83686467  0.81331905     0.03100
C568        C  0.07926111  0.84124570  0.75884459    -0.04800
C569        C  0.05777029  0.81409670  0.71982266    -0.01900
C570        C  0.04922809  0.78361049  0.73155302     0.03100
C571        C  0.08899425  0.80343707  0.88049354     0.37700
C572        C  0.04313606  0.81706756  0.66794689     0.37700
C573        C  0.02696435  0.75657230  0.69105388     0.36100
C574        C  0.10370852  0.86348108  0.85855398     0.36100
N575        N  0.50916321  0.73525996  0.65894993    -0.38700
N576        N  0.11634505  0.88442534  0.89528023    -0.38700
N577        N  0.03125969  0.81927001  0.62666742    -0.38100
N578        N  0.09704118  0.80147101  0.92517214    -0.38100
C579        C  0.09598179  0.55214161  0.70978260    -0.04800
C580        C  0.10954637  0.58290502  0.74026338    -0.01900
C581        C  0.09103790  0.59982714  0.74616992     0.03100
C582        C  0.05814471  0.58562804  0.72290006    -0.04800
C583        C  0.04489985  0.55486291  0.69100724    -0.01900
C584        C  0.06414776  0.53876027  0.68274091     0.03100
C585        C  0.14220689  0.59638924  0.76881981     0.37700
C586        C  0.01077120  0.53847473  0.67040992     0.37700
C587        C  0.05022431  0.50723931  0.65014675     0.36100
C588        C  0.10664736  0.63174194  0.77662102     0.36100
N589        N  0.03042027  0.97755772  0.62979442    -0.38700
N590        N  0.12102113  0.65695618  0.80148221    -0.38700
N591        N  0.98356786  0.52475759  0.65425433    -0.38100
N592        N  0.16810386  0.60705680  0.79197927    -0.38100
C593        C  0.39316793  0.00864978  0.72992110    -0.04800
C594        C  0.39725080  0.53601187  0.77713746    -0.01900
C595        C  0.41563294  0.56682901  0.76814106     0.03100
C596        C  0.43074765  0.57204020  0.71890257    -0.04800
C597        C  0.42230851  0.54623544  0.67450520    -0.01900
C598        C  0.40505763  0.51524934  0.68410524     0.03100
C599        C  0.37600132  0.03066833  0.81539086     0.37700
C600        C  0.93412834  0.55149817  0.61934495     0.37700
C601        C  0.39938540  0.48940935  0.63911616     0.36100
C602        C  0.41940096  0.59332591  0.81013021     0.36100
N603        N  0.39815376  0.96778211  0.59893867    -0.38700
N604        N  0.42240068  0.61438754  0.84370400    -0.38700
N605        N  0.94253407  0.55557321  0.57563528    -0.38100
N606        N  0.36086180  0.02746355  0.85284290    -0.38100
C607        C  0.23388843  0.79061932  0.78888491    -0.04800
C608        C  0.21578785  0.76328884  0.74858039    -0.01900
C609        C  0.18285343  0.74434871  0.75230148     0.03100
C610        C  0.16704836  0.75282880  0.79610282    -0.04800
C611        C  0.18641087  0.77832282  0.83992454    -0.01900
C612        C  0.21973644  0.79656051  0.83672736     0.03100
C613        C  0.23107178  0.75517740  0.70187050     0.37700
C614        C  0.17215128  0.78733899  0.88715363     0.37700
C615        C  0.23911844  0.82224529  0.88182364     0.36100
C616        C  0.16553272  0.71621374  0.71032548     0.36100
N617        N  0.25444813  0.84231919  0.91858492    -0.38700
N618        N  0.15186125  0.69388372  0.67661662    -0.38700
N619        N  0.16111367  0.79479637  0.92513031    -0.38100
N620        N  0.24330434  0.74883794  0.66464479    -0.38100
C621        C  0.20125882  0.92760362  0.72414847    -0.04800
C622        C  0.21152633  0.92195279  0.77568682    -0.01900
C623        C  0.23552967  0.91104322  0.77893573     0.03100
C624        C  0.24939738  0.90476358  0.73022517    -0.04800
C625        C  0.24139681  0.91369300  0.68000971    -0.01900
C626        C  0.21772292  0.92503851  0.67728585     0.03100
C627        C  0.19599473  0.92500957  0.82538858     0.37700
C628        C  0.25690237  0.91106241  0.62998806     0.37700
C629        C  0.20993687  0.93364102  0.62535366     0.36100
C630        C  0.24471099  0.90541061  0.83291124     0.36100
N631        N  0.20375992  0.94033278  0.58381225    -0.38700
N632        N  0.25178815  0.90113111  0.87628981    -0.38700
N633        N  0.26896101  0.90894171  0.58974534    -0.38100
N634        N  0.18431794  0.92704392  0.86608360    -0.38100
C635        C  0.45005603  0.93425180  0.76353805    -0.04800
C636        C  0.47299894  0.96628357  0.77497771    -0.01900
C637        C  0.50621539  0.97492859  0.77463739     0.03100
C638        C  0.02075555  0.95290637  0.76633200    -0.04800
C639        C  0.49452704  0.92047982  0.74191156    -0.01900
C640        C  0.46125666  0.91132810  0.74788765     0.03100
C641        C  0.46286921  0.99104525  0.78733572     0.37700
C642        C  0.00921934  0.89716847  0.74031090     0.37700
C643        C  0.43907836  0.87841932  0.74100951     0.36100
C644        C  0.03227308  0.00855063  0.79747043     0.36100
N645        N  0.42141565  0.85210592  0.73547054    -0.38700
N646        N  0.05023594  0.53221196  0.82074915    -0.38700
N647        N  0.01801224  0.87804985  0.72903610    -0.38100
N648        N  0.45564223  0.01132797  0.79750964    -0.38100
C649        C  0.12230039  0.97447011  0.53652344    -0.04800
C650        C  0.15895533  0.50048897  0.54143803    -0.01900
C651        C  0.16840545  0.51884315  0.49830898     0.03100
C652        C  0.14598465  0.51444131  0.45149372    -0.04800
C653        C  0.11067769  0.98969902  0.44793601    -0.01900
C654        C  0.10023179  0.97165058  0.49134201     0.03100
C655        C  0.18244491  0.50597311  0.58861404     0.37700
C656        C  0.08663862  0.98557983  0.40284585     0.37700
C657        C  0.06661875  0.94940925  0.48887116     0.36100
C658        C  0.20109907  0.54358596  0.50464348     0.36100
N659        N  0.03986306  0.93154832  0.48691928    -0.38700
N660        N  0.22709136  0.56352501  0.51016694    -0.38700
N661        N  0.06702015  0.98205617  0.36746188    -0.38100
N662        N  0.20122946  0.51056783  0.62628519    -0.38100
C663        C  0.17454799  0.52199603  0.05831216    -0.04800
C664        C  0.19901561  0.52022700  0.02653661    -0.01900
C665        C  0.19030413  0.50035486  0.97261102     0.03100
C666        C  0.15678632  0.98301528  0.95130884    -0.04800
C667        C  0.13371898  0.98060806  0.98827542    -0.01900
C668        C  0.14192220  0.49954234  0.03804725     0.03100
C669        C  0.23261264  0.54076192  0.04619888     0.37700
C670        C  0.10050553  0.95711272  0.97119272     0.37700
C671        C  0.11404221  0.50365946  0.05472948     0.36100
C672        C  0.21426515  0.50376786  0.93425732     0.36100
N673        N  0.09103126  0.01118787  0.06717143    -0.38700
N674        N  0.23337839  0.50654661  0.90346567    -0.38700
N675        N  0.07409779  0.93861064  0.95731222    -0.38100
N676        N  0.25950260  0.55696584  0.06212923    -0.38100
C677        C  0.36123747  0.85651624  0.04541819    -0.04800
C678        C  0.37483157  0.85259424  0.99578111    -0.01900
C679        C  0.36834562  0.86416580  0.94872197     0.03100
C680        C  0.34799660  0.87951396  0.95107600    -0.04800
C681        C  0.33397045  0.88287737  0.00040261    -0.01900
C682        C  0.34026407  0.87105607  0.04720942     0.03100
C683        C  0.39588442  0.83715111  0.99348620     0.37700
C684        C  0.31444942  0.89989659  0.00399437     0.37700
C685        C  0.32419845  0.87286107  0.09667064     0.36100
C686        C  0.38288579  0.86048056  0.89793916     0.36100
N687        N  0.31092854  0.87382677  0.13573175    -0.38700
N688        N  0.39463343  0.85771932  0.85758918    -0.38700
N689        N  0.29906696  0.91367105  0.00690142    -0.38100
N690        N  0.41267568  0.82483518  0.99155545    -0.38100
C691        C  0.34761941  0.86507487  0.54575669    -0.04800
C692        C  0.37719473  0.86294776  0.54392433    -0.01900
C693        C  0.38350695  0.84801761  0.49476292     0.03100
C694        C  0.36142558  0.83706290  0.44556168    -0.04800
C695        C  0.33261696  0.84057882  0.44627688    -0.01900
C696        C  0.32522600  0.85353839  0.49646532     0.03100
C697        C  0.40190609  0.87711307  0.59158658     0.37700
C698        C  0.31236697  0.83423302  0.39397055     0.37700
C699        C  0.29517119  0.85641907  0.49625708     0.36100
C700        C  0.41398454  0.84593577  0.49336689     0.36100
N701        N  0.27106066  0.85843935  0.49560365    -0.38700
N702        N  0.43829232  0.84437258  0.49210892    -0.38700
N703        N  0.29665315  0.82999300  0.35219031    -0.38100
N704        N  0.42239697  0.88918209  0.62842940    -0.38100
C705        C  0.25700203  0.66111704  0.27875001    -0.04800
C706        C  0.27805258  0.66727483  0.23698177    -0.01900
C707        C  0.29229847  0.69722028  0.22273126     0.03100
C708        C  0.28806833  0.72268992  0.25338508    -0.04800
C709        C  0.26868820  0.71683915  0.29800215    -0.01900
C710        C  0.25277742  0.68616221  0.30990695     0.03100
C711        C  0.28536017  0.64268575  0.20807723     0.37700
C712        C  0.26352931  0.74179638  0.33029081     0.37700
C713        C  0.23093813  0.68037688  0.35274506     0.36100
C714        C  0.31055601  0.70059393  0.17484816     0.36100
N715        N  0.21353554  0.67590061  0.38692363    -0.38700
N716        N  0.32402304  0.70205582  0.13546824    -0.38700
N717        N  0.25894043  0.76124726  0.35668848    -0.38100
N718        N  0.29115492  0.62329475  0.18453308    -0.38100
C719        C  0.49509970  0.90543913  0.22816045    -0.04800
C720        C  0.00024737  0.92904445  0.19815411    -0.01900
C721        C  0.03146648  0.95192868  0.19700637     0.03100
C722        C  0.05815718  0.94949653  0.22308844    -0.04800
C723        C  0.05376071  0.92385590  0.24907971    -0.01900
C724        C  0.02239910  0.90094832  0.25070037     0.03100
C725        C  0.47319695  0.93493954  0.17557030     0.37700
C726        C  0.08134260  0.92155017  0.27545439     0.37700
C727        C  0.51693723  0.87385125  0.27391087     0.36100
C728        C  0.03617240  0.47876908  0.17462968     0.36100
N729        N  0.51299818  0.85184125  0.29282930    -0.38700
N730        N  0.03851040  0.49997750  0.15444488    -0.38700
N731        N  0.10332544  0.91988802  0.29694686    -0.38100
N732        N  0.45197196  0.93815331  0.15489310    -0.38100
C733        C  0.04561059  0.66757213  0.55519905    -0.04800
C734        C  0.03350213  0.63665273  0.52307373    -0.01900
C735        C  0.01123068  0.62721590  0.47441227     0.03100
C736        C  0.50265589  0.64885386  0.45033707    -0.04800
C737        C  0.51866779  0.68078656  0.47758871    -0.01900
C738        C  0.03935492  0.69002473  0.53164592     0.03100
C739        C  0.04377236  0.61393462  0.53938629     0.37700
C740        C  0.51515995  0.70492442  0.45206673     0.37700
C741        C  0.05428990  0.72253160  0.55937054     0.36100
C742        C  0.99573711  0.59442377  0.44795412     0.36100
N743        N  0.56578448  0.74804521  0.57928376    -0.38700
N744        N  0.98342792  0.56824069  0.42727473    -0.38700
N745        N  0.51268962  0.72431158  0.43165492    -0.38100
N746        N  0.05173063  0.59567521  0.55213837    -0.38100
C747        C  0.46392064  0.63088876  0.03880145    -0.04800
C748        C  0.46214730  0.60923680  0.99113766    -0.01900
C749        C  0.48021987  0.61925290  0.94594787     0.03100
C750        C  0.99971821  0.65251607  0.94901856    -0.04800
C751        C  0.00109238  0.67409708  0.99716009    -0.01900
C752        C  0.98465507  0.66346519  0.04391394     0.03100
C753        C  0.44246920  0.57598652  0.98958719     0.37700
C754        C  0.02078836  0.70747344  0.00092073     0.37700
C755        C  0.99215592  0.68569087  0.09569845     0.36100
C756        C  0.47950247  0.59529610  0.90135091     0.36100
N757        N  0.00004849  0.70469114  0.13573904    -0.38700
N758        N  0.47907512  0.57608910  0.86613432    -0.38700
N759        N  0.03634426  0.73415061  0.00440380    -0.38100
N760        N  0.42691434  0.54951226  0.98847607    -0.38100
C761        C  0.43529596  0.71998357  0.21577906    -0.04800
C762        C  0.41889769  0.71810872  0.16367008    -0.01900
C763        C  0.40535098  0.73921207  0.15791037     0.03100
C764        C  0.40594330  0.76057342  0.20554426    -0.04800
C765        C  0.42651680  0.76521801  0.25483120    -0.01900
C766        C  0.44182614  0.74563134  0.25895690     0.03100
C767        C  0.41402199  0.69339272  0.11706659     0.37700
C768        C  0.43213961  0.78986308  0.30214894     0.37700
C769        C  0.46391256  0.75140264  0.30858622     0.36100
C770        C  0.38995087  0.73791617  0.10342385     0.36100
N771        N  0.48165210  0.75609249  0.34793457    -0.38700
N772        N  0.37781642  0.73691452  0.05980316    -0.38700
N773        N  0.43716637  0.80920839  0.34075069    -0.38100
N774        N  0.40990053  0.67379343  0.07945508    -0.38100
C775        C  0.42556455  0.50577642  0.26742589    -0.04800
C776        C  0.44976536  0.99924759  0.29346152    -0.01900
C777        C  0.44287741  0.96825501  0.29890056     0.03100
C778        C  0.41127043  0.94348929  0.28178833    -0.04800
C779        C  0.38682022  0.95097093  0.26138869    -0.01900
C780        C  0.39455758  0.98162153  0.25150227     0.03100
C781        C  0.48162301  0.52483775  0.31192111     0.37700
C782        C  0.35343321  0.92779268  0.25428420     0.37700
C783        C  0.36864736  0.48691761  0.22728745     0.36100
C784        C  0.46932882  0.96226615  0.31990896     0.36100
N785        N  0.34820963  0.49154172  0.20737271    -0.38700
N786        N  0.49060261  0.95787444  0.33677454    -0.38700
N787        N  0.32671028  0.90958598  0.25054065    -0.38100
N788        N  0.00860807  0.54372022  0.32359993    -0.38100
C789        C  0.35283867  0.60579399  0.26952625    -0.04800
C790        C  0.33028769  0.57928370  0.23123820    -0.01900
C791        C  0.29683048  0.56525463  0.23888822     0.03100
C792        C  0.28514334  0.57763911  0.28488068    -0.04800
C793        C  0.30808198  0.60481534  0.32241266    -0.01900
C794        C  0.34113629  0.61857265  0.31460450     0.03100
C795        C  0.34152952  0.56602429  0.18429060     0.37700
C796        C  0.29821764  0.62024417  0.36878648     0.37700
C797        C  0.36304847  0.64710095  0.35269061     0.36100
C798        C  0.27467381  0.53770979  0.19957835     0.36100
N799        N  0.38035443  0.66969081  0.38327157    -0.38700
N800        N  0.25704985  0.51568166  0.16812936    -0.38700
N801        N  0.29098143  0.63289151  0.40605677    -0.38100
N802        N  0.35046885  0.55548572  0.14664643    -0.38100
C803        C  0.04150312  0.59808562  0.22865453    -0.04800
C804        C  0.05771843  0.59911507  0.28034443    -0.01900
C805        C  0.07921411  0.58506814  0.28174576     0.03100
C806        C  0.08804313  0.57379835  0.23090818    -0.05400
C807        C  0.07839546  0.58146243  0.18042655    -0.01900
C808        C  0.05419631  0.59202250  0.17904190     0.03100
C809        C  0.05317052  0.61526968  0.33186210     0.37700
C810        C  0.09342555  0.57934130  0.12960841     0.37700
C811        C  0.04257780  0.59716246  0.12639857     0.36100
C812        C  0.09128807  0.58184283  0.33562903     0.36100
N813        N  0.03331600  0.60130258  0.08453468    -0.38700
N814        N  0.10059159  0.57919848  0.37886718    -0.38700
N815        N  0.10542648  0.57812346  0.08896877    -0.38100
N816        N  0.05101458  0.62921739  0.37319314    -0.38100
O817        O  0.96424452  0.10172338  0.10782707    -0.80400
O818        O  0.97956659  0.11879978  0.35909187    -0.65000
O819        O  0.93780093  0.09563422  0.20937550    -1.11700
C820        C  0.94039846  0.19334410  0.23135484     1.06500
O821        O  0.95973490  0.15193677  0.39230722    -0.78300
O822        O  0.90596939  0.12766610  0.31160793    -0.65800
Ni823      Ni  0.94688803  0.06991072  0.15387668     1.34900
C824        C  0.88808404  0.11934708  0.26482912     0.85300
O825        O  0.94892877  0.06226481  0.28693243    -0.78800
O826        O  0.93009848  0.03692388  0.19726524    -0.89100
C827        C  0.97820365  0.13881470  0.39827019     0.84800
O828        O  0.49068958  0.08053441  0.18778758    -0.67300
O829        O  0.93043657  0.18418749  0.27658817    -0.86600
C830        C  0.50978616  0.09950364  0.22986149     0.85700
C831        C  0.93522659  0.03703280  0.24974920     1.07200
H832        H  0.98735185  0.16136644  0.28022929     0.39000
O833        O  0.96461232  0.14747636  0.27775027    -1.09200
O834        O  0.90024659  0.12527297  0.21830790    -0.65900
Ni835      Ni  0.94555560  0.13708888  0.20142989     1.26300
O836        O  0.00058927  0.11412288  0.26246700    -0.66100
O837        O  0.95227250  0.17907052  0.19842287    -0.78400
C838        C  0.95252669  0.11930363  0.09140254     0.85100
O839        O  0.93372185  0.12697287  0.12077512    -0.65600
Ni840      Ni  0.94502505  0.16534415  0.32986247     1.27400
Ni841      Ni  0.95813558  0.10565173  0.28384033     1.26100
H842        H  0.91508349  0.08370675  0.21157131     0.39600
O843        O  0.85187539  0.31372314  0.09636995    -0.80400
O844        O  0.86809089  0.31113462  0.36078056    -0.65000
O845        O  0.85026696  0.32195645  0.21193004    -1.11700
C846        C  0.96398324  0.38567188  0.24537500     1.06500
O847        O  0.89314906  0.36319171  0.38178941    -0.78300
O848        O  0.92420113  0.40663129  0.32106121    -0.65800
Ni849      Ni  0.83594142  0.28727888  0.15151187     1.34900
C850        C  0.90702242  0.41061616  0.28364845     0.85300
O851        O  0.81637034  0.27997136  0.28294561    -0.78800
O852        O  0.81538317  0.25642053  0.19701530    -0.89100
C853        C  0.87558178  0.33692452  0.39444865     0.84800
O854        O  0.87570141  0.28378150  0.16468495    -0.67300
O855        O  0.96287792  0.38005970  0.29545259    -0.86600
C856        C  0.88469877  0.27683341  0.20947956     0.85700
C857        C  0.80726221  0.25513187  0.24629375     1.07200
H858        H  0.91436395  0.33047504  0.26896861     0.39000
O859        O  0.90163366  0.34161403  0.27824248    -1.09200
O860        O  0.88763344  0.38793841  0.24565443    -0.65900
Ni861      Ni  0.89413821  0.35228241  0.21052681     1.26300
O862        O  0.87364792  0.28113099  0.25608128    -0.66100
O863        O  0.93908756  0.37893824  0.21064680    -0.78400
C864        C  0.86637510  0.34314419  0.09828075     0.85100
O865        O  0.88417614  0.36225640  0.14127515    -0.65600
Ni866      Ni  0.92794571  0.37111152  0.33902405     1.27400
Ni867      Ni  0.85887555  0.31269282  0.28346947     1.26100
H868        H  0.83565046  0.33157818  0.21367963     0.39600
O869        O  0.68774861  0.04462682  0.39798126    -0.80400
O870        O  0.70569487  0.05828861  0.14983481    -0.65000
O871        O  0.68172717  0.06950092  0.30089840    -1.11700
C872        C  0.59141036  0.47297033  0.22279284     1.06500
O873        O  0.65894556  0.05496000  0.13302151    -0.78300
O874        O  0.60954751  0.04494176  0.18654615    -0.65800
Ni875      Ni  0.71009055  0.08296624  0.36707350     1.34900
C876        C  0.60722149  0.05668814  0.23500508     0.85300
O877        O  0.72888640  0.10828739  0.24408466    -0.78800
O878        O  0.73266548  0.12170317  0.33926457    -0.89100
C879        C  0.68116460  0.04991255  0.11374014     0.84800
O880        O  0.74203252  0.07039868  0.34164220    -0.67300
O881        O  0.59868710  0.48041552  0.17535975    -0.86600
C882        C  0.74937050  0.06475693  0.29275507     0.85700
C883        C  0.73922758  0.12836873  0.29025845     1.07200
H884        H  0.66612296  0.00947728  0.21271848     0.39000
O885        O  0.65906673  0.02585004  0.21772182    -1.09200
O886        O  0.61888713  0.05118985  0.27863307    -0.65900
Ni887      Ni  0.64568729  0.02963709  0.29056788     1.26300
O888        O  0.72779130  0.05242958  0.25005356    -0.66100
O889        O  0.60847896  0.48782362  0.26995671    -0.78400
C890        C  0.65763931  0.03145085  0.40415722     0.85100
O891        O  0.63745747  0.03261221  0.36789657    -0.65600
Ni892      Ni  0.62860257  0.01929756  0.15637234     1.27400
Ni893      Ni  0.69568448  0.06614317  0.22810475     1.26100
H894        H  0.67370658  0.08511903  0.30199001     0.39600
O895        O  0.87290082  0.41369413  0.89269268    -0.80400
O896        O  0.85977364  0.39730164  0.64211668    -0.65000
O897        O  0.84587754  0.41740811  0.79235463    -1.11700
C898        C  0.76276135  0.31917573  0.77582004     1.06500
O899        O  0.81178693  0.35631504  0.61312164    -0.78300
O900        O  0.78073440  0.38062747  0.68769073    -0.65800
Ni901      Ni  0.87865862  0.44512625  0.84828614     1.34900
C902        C  0.77404541  0.39113571  0.73436456     0.85300
O903        O  0.87649987  0.45291432  0.71450458    -0.78800
O904        O  0.88513869  0.47706381  0.80490926    -0.89100
C905        C  0.84000329  0.37472490  0.60477813     0.84800
O906        O  0.91454681  0.44100074  0.81964179    -0.67300
O907        O  0.75927770  0.32633096  0.72841288    -0.86600
C908        C  0.91865000  0.42602600  0.77563639     0.85700
C909        C  0.88459834  0.47764281  0.75218550     1.07200
H910        H  0.83934603  0.35342530  0.72505710     0.39000
O911        O  0.82697135  0.36538517  0.72626212    -1.09200
O912        O  0.78296625  0.38532609  0.78094515    -0.65900
Ni913      Ni  0.81926389  0.37586414  0.80142060     1.26300
O914        O  0.89506532  0.40756915  0.73821396    -0.66100
O915        O  0.78947068  0.33356443  0.80765966    -0.78400
C916        C  0.84642728  0.39532819  0.90799098     0.85100
O917        O  0.81934035  0.38818322  0.87991092    -0.65600
Ni918      Ni  0.78825277  0.34422461  0.67506393     1.27400
Ni919      Ni  0.85370234  0.40863776  0.71837981     1.26100
H920        H  0.83244967  0.42814118  0.79016054     0.39600
O921        O  0.62604718  0.43934559  0.59807559    -0.80400
O922        O  0.64434241  0.45566885  0.85440898    -0.65000
O923        O  0.60225931  0.43321086  0.70351905    -1.11700
C924        C  0.61113281  0.03315855  0.73366339     1.06500
O925        O  0.63446163  0.49687760  0.88194613    -0.78300
O926        O  0.57590354  0.47355201  0.81179051    -0.65800
Ni927      Ni  0.60988453  0.40730797  0.64606378     1.34900
C928        C  0.55697550  0.46328462  0.76566113     0.85300
O929        O  0.60901713  0.39917140  0.78179470    -0.78800
O930        O  0.59374340  0.37470371  0.69114039    -0.89100
C931        C  0.64652159  0.47853063  0.89136608     0.84800
O932        O  0.65274789  0.41524949  0.67304857    -0.67300
O933        O  0.60923671  0.02958934  0.78461691    -0.86600
C934        C  0.67174957  0.43101343  0.71743412     0.85700
C935        C  0.59531022  0.37406731  0.74414734     1.07200
H936        H  0.65597186  0.49770038  0.76713777     0.39000
O937        O  0.63307147  0.48577510  0.76812181    -1.09200
O938        O  0.56774575  0.46537194  0.71748865    -0.65900
Ni939      Ni  0.61083460  0.47414721  0.69374755     1.26300
O940        O  0.66423135  0.44677778  0.75618574    -0.66100
O941        O  0.61776605  0.01599800  0.69639798    -0.78400
C942        C  0.61274766  0.45652914  0.58480892     0.85100
O943        O  0.59341636  0.46138870  0.61630595    -0.65600
Ni944      Ni  0.61800599  0.50850870  0.82067245     1.27400
Ni945      Ni  0.62300367  0.44322759  0.77759471     1.26100
H946        H  0.57948966  0.42193552  0.70618499     0.39600
O947        O  0.55684233  0.15461986  0.63976448    -0.80400
O948        O  0.52004432  0.14322291  0.86162704    -0.65000
O949        O  0.52371159  0.16400126  0.71630810    -1.11700
C950        C  0.63020523  0.23813905  0.79882647     1.06500
O951        O  0.53376784  0.19270115  0.89717345    -0.78300
O952        O  0.56416755  0.24361169  0.84217081    -0.65800
Ni953      Ni  0.51400285  0.13233962  0.65281805     1.34900
C954        C  0.55915904  0.24888650  0.79341352     0.85300
O955        O  0.97958696  0.11563783  0.76315932    -0.78800
O956        O  0.96801842  0.11177067  0.67031721    -0.89100
C957        C  0.51887144  0.16348610  0.90035782     0.84800
O958        O  0.52776261  0.10476047  0.68051686    -0.67300
O959        O  0.61863057  0.23475166  0.84617062    -0.86600
C960        C  0.54310454  0.10711405  0.72665271     0.85700
C961        C  0.96080783  0.10245537  0.71680741     1.07200
H962        H  0.57885539  0.17562417  0.80696446     0.39000
O963        O  0.56404074  0.18463670  0.80288781    -1.09200
O964        O  0.55606584  0.22975707  0.74854241    -0.65900
Ni965      Ni  0.56806380  0.19593639  0.73068953     1.26300
O966        O  0.54306875  0.12454948  0.77115091    -0.66100
O967        O  0.61275937  0.22596615  0.75080953    -0.78400
C968        C  0.55974964  0.17737988  0.61758438     0.85100
O969        O  0.56864638  0.20296226  0.65223868    -0.65600
Ni970      Ni  0.57577273  0.21374040  0.86945163     1.27400
Ni971      Ni  0.52158531  0.15116793  0.78664120     1.26100
H972        H  0.50938744  0.17374612  0.71275163     0.39600
C973        C  0.56034810  0.28034547  0.78778084    -0.04800
C974        C  0.57814575  0.30739030  0.82956960    -0.01900
C975        C  0.58813936  0.33790268  0.81681006     0.03100
C976        C  0.58050329  0.34211733  0.76192378    -0.04800
C977        C  0.55803645  0.31502140  0.72377335    -0.01900
C978        C  0.54802163  0.28464931  0.73685607     0.03100
C979        C  0.58635733  0.30432936  0.88628779     0.37700
C980        C  0.54405161  0.31783260  0.67115127     0.37700
C981        C  0.52402422  0.25769112  0.69831481     0.36100
C982        C  0.60607995  0.36463169  0.86120786     0.36100
N983        N  0.00964478  0.23504622  0.65979228    -0.38700
N984        N  0.61987377  0.38560698  0.89744879    -0.38700
N985        N  0.53264041  0.31969797  0.62909388    -0.38100
N986        N  0.59254515  0.30210133  0.93183293    -0.38100
C987        C  0.59959084  0.05525843  0.71741628    -0.04800
C988        C  0.61299609  0.08595529  0.74824620    -0.01900
C989        C  0.59484610  0.10327436  0.75134449     0.03100
C990        C  0.56230252  0.08907895  0.72635721    -0.04800
C991        C  0.54936729  0.05852572  0.69416190    -0.01900
C992        C  0.56856601  0.04246365  0.68710054     0.03100
C993        C  0.64521631  0.09922142  0.77839861     0.37700
C994        C  0.51540378  0.04226992  0.67216658     0.37700
C995        C  0.55495269  0.01147721  0.65248241     0.36100
C996        C  0.61037820  0.13563184  0.77969585     0.36100
N997        N  0.53177709  0.47780193  0.62818088    -0.38700
N998        N  0.62441228  0.16133775  0.80253264    -0.38700
N999        N  0.48830982  0.02876089  0.65515624    -0.38100
N1000       N  0.67083249  0.10974007  0.80264386    -0.38100
C1001       C  0.89532732  0.50936022  0.73575938    -0.04800
C1002       C  0.89670704  0.03639803  0.77310322    -0.01900
C1003       C  0.91561960  0.06724184  0.76477140     0.03100
C1004       C  0.93144410  0.07248349  0.71627736    -0.04800
C1005       C  0.92339571  0.04676167  0.67187643    -0.01900
C1006       C  0.90591936  0.01575246  0.68115873     0.03100
C1007       C  0.87995255  0.53035390  0.82469291     0.37700
C1008       C  0.43677346  0.05005725  0.61612833     0.37700
C1009       C  0.90115930  0.98995669  0.63674659     0.36100
C1010       C  0.91916575  0.09372343  0.80657927     0.36100
N1011       N  0.89827962  0.46936083  0.60223306    -0.38700
N1012       N  0.92205880  0.11482595  0.83995028    -0.38700
N1013       N  0.44590908  0.05387705  0.57280898    -0.38100
N1014       N  0.86641885  0.52658847  0.86409932    -0.38100
C1015       C  0.73306226  0.29457879  0.79255990    -0.04800
C1016       C  0.71538097  0.26639627  0.75391279    -0.01900
C1017       C  0.68247025  0.24740111  0.75766539     0.03100
C1018       C  0.66616593  0.25672252  0.79931665    -0.04800
C1019       C  0.68468742  0.28362443  0.84095397    -0.01900
C1020       C  0.71804659  0.30199019  0.83809420     0.03100
C1021       C  0.73102728  0.25727508  0.70891519     0.37700
C1022       C  0.66940475  0.29376014  0.88526357     0.37700
C1023       C  0.73656718  0.32912813  0.88118500     0.36100
C1024       C  0.66557646  0.21810939  0.71829982     0.36100
N1025       N  0.75111477  0.35031784  0.91661640    -0.38700
N1026       N  0.65212323  0.19477039  0.68689328    -0.38700
N1027       N  0.65765096  0.30219957  0.92098807    -0.38100
N1028       N  0.74341589  0.24999785  0.67291121    -0.38100
C1029       C  0.70311720  0.42867273  0.72524240    -0.04800
C1030       C  0.71406027  0.42425803  0.77748958    -0.01900
C1031       C  0.73909529  0.41476146  0.78177653     0.03100
C1032       C  0.75319933  0.40849447  0.73348972    -0.04800
C1033       C  0.74515092  0.41707889  0.68301993    -0.01900
C1034       C  0.71998205  0.42642717  0.67874643     0.03100
C1035       C  0.69842631  0.42726083  0.82706222     0.37700
C1036       C  0.76304749  0.41719155  0.63521505     0.37700
C1037       C  0.71120967  0.43336744  0.62575067     0.36100
C1038       C  0.74993760  0.41161163  0.83673352     0.36100
N1039       N  0.70417259  0.43865557  0.58331245    -0.38700
N1040       N  0.75851690  0.40969441  0.88107474    -0.38700
N1041       N  0.77737642  0.41761177  0.59708920    -0.38100
N1042       N  0.68690240  0.42928133  0.86793999    -0.38100
C1043       C  0.95344469  0.43360245  0.76795594    -0.04800
C1044       C  0.97668434  0.46553757  0.78008868    -0.01900
C1045       C  0.01002644  0.47396009  0.78173275     0.03100
C1046       C  0.52145584  0.45280103  0.76863274    -0.04800
C1047       C  0.99818292  0.41941635  0.75026946    -0.01900
C1048       C  0.96463298  0.41053707  0.75355026     0.03100
C1049       C  0.96664394  0.49045848  0.79067533     0.37700
C1050       C  0.50949472  0.39713184  0.73936133     0.37700
C1051       C  0.94201060  0.37771768  0.74462121     0.36100
C1052       C  0.53318623  0.50826078  0.80277109     0.36100
N1053       N  0.92394394  0.35146382  0.73716405    -0.38700
N1054       N  0.54702913  0.03310345  0.81290826    -0.38700
N1055       N  0.51804239  0.37803089  0.72590143    -0.38100
N1056       N  0.95946810  0.51085407  0.79930382    -0.38100
C1057       C  0.62361608  0.47484132  0.53749344    -0.04800
C1058       C  0.65801566  0.99851360  0.54213518    -0.01900
C1059       C  0.66834656  0.01625745  0.49848384     0.03100
C1060       C  0.64611544  0.01316210  0.45234513    -0.04800
C1061       C  0.61158609  0.49085091  0.44989229    -0.01900
C1062       C  0.60144506  0.47219674  0.49260114     0.03100
C1063       C  0.68094816  0.00360080  0.58998360     0.37700
C1064       C  0.58719250  0.48762990  0.40628516     0.37700
C1065       C  0.56805749  0.44927214  0.48933491     0.36100
C1066       C  0.70214832  0.03822724  0.50273012     0.36100
N1067       N  0.54150524  0.43076829  0.48653310    -0.38700
N1068       N  0.72918698  0.05562156  0.50642635    -0.38700
N1069       N  0.56744810  0.48508562  0.37204659    -0.38100
N1070       N  0.69906022  0.00773890  0.62843124    -0.38100
C1071       C  0.67290497  0.02674542  0.05841636    -0.04800
C1072       C  0.69634061  0.02465301  0.02404859    -0.01900
C1073       C  0.68646188  0.00429097  0.97016378     0.03100
C1074       C  0.66019913  0.48415975  0.95117626    -0.04800
C1075       C  0.63722338  0.47953308  0.98885886    -0.01900
C1076       C  0.63981059  0.00578258  0.03870171     0.03100
C1077       C  0.73012391  0.04555181  0.04129605     0.37700
C1078       C  0.60507088  0.45386438  0.97260491     0.37700
C1079       C  0.61293130  0.01069262  0.05879253     0.36100
C1080       C  0.70994129  0.00615245  0.93147832     0.36100
N1081       N  0.59142465  0.50735360  0.06460012    -0.38700
N1082       N  0.72885564  0.00772567  0.90076391    -0.38700
N1083       N  0.57958902  0.43342973  0.95915526    -0.38100
N1084       N  0.75708774  0.06236548  0.05529526    -0.38100
C1085       C  0.86057039  0.35555293  0.04877870    -0.04800
C1086       C  0.87291283  0.35015894  0.99845301    -0.01900
C1087       C  0.86741167  0.36249447  0.95180439     0.03100
C1088       C  0.84862702  0.37944397  0.95484888    -0.04800
C1089       C  0.83484853  0.38334685  0.00426082    -0.01900
C1090       C  0.84069239  0.37127395  0.05106859     0.03100
C1091       C  0.89106584  0.33177055  0.99467782     0.37700
C1092       C  0.81572888  0.40077229  0.00771795     0.37700
C1093       C  0.82496414  0.37371852  0.10072928     0.36100
C1094       C  0.88119363  0.35776154  0.90061123     0.36100
N1095       N  0.81182897  0.37517123  0.13979196    -0.38700
N1096       N  0.89234565  0.35415181  0.85993331    -0.38700
N1097       N  0.80050896  0.41471101  0.01060616    -0.38100
N1098       N  0.90523702  0.31681697  0.99162096    -0.38100
C1099       C  0.84995554  0.36676240  0.54954645    -0.04800
C1100       C  0.87921654  0.36405937  0.54714063    -0.01900
C1101       C  0.88545182  0.34981188  0.49718505     0.03100
C1102       C  0.86303447  0.33897760  0.44852075    -0.04800
C1103       C  0.83439748  0.34279797  0.44989625    -0.01900
C1104       C  0.82766868  0.35625593  0.50030372     0.03100
C1105       C  0.90369700  0.37683209  0.59512483     0.37700
C1106       C  0.81348819  0.33588243  0.39812005     0.37700
C1107       C  0.79867102  0.36105166  0.50042379     0.36100
C1108       C  0.91632986  0.34864625  0.49421828     0.36100
N1109       N  0.77556561  0.36489729  0.50008132    -0.38700
N1110       N  0.94099687  0.34799853  0.49121226    -0.38700
N1111       N  0.79710773  0.33099105  0.35681445    -0.38100
N1112       N  0.92408549  0.38761029  0.63219449    -0.38100
C1113       C  0.75958056  0.16150111  0.28575419    -0.04800
C1114       C  0.78187868  0.16805587  0.24615299    -0.01900
C1115       C  0.79632368  0.19806569  0.23232025     0.03100
C1116       C  0.79076121  0.22311400  0.26121467    -0.04800
C1117       C  0.77049200  0.21699953  0.30451697    -0.01900
C1118       C  0.75455999  0.18625611  0.31607078     0.03100
C1119       C  0.79006742  0.14377743  0.21874267     0.37700
C1120       C  0.76431493  0.24167856  0.33532314     0.37700
C1121       C  0.73177892  0.18000662  0.35735376     0.36100
C1122       C  0.81590224  0.20184441  0.18622432     0.36100
N1123       N  0.71361687  0.17507333  0.39029113    -0.38700
N1124       N  0.83030618  0.20344447  0.14803396    -0.38700
N1125       N  0.75897573  0.26098792  0.36039276    -0.38100
N1126       N  0.79681573  0.12485621  0.19610615    -0.38100
C1127       C  0.99602821  0.40379739  0.22936536    -0.04800
C1128       C  0.50118894  0.42850582  0.19959411    -0.01900
C1129       C  0.53261170  0.45027198  0.19578604     0.03100
C1130       C  0.55922695  0.44769056  0.22199794    -0.04800
C1131       C  0.55447270  0.42182985  0.24755201    -0.01900
C1132       C  0.52288598  0.39965487  0.25075444     0.03100
C1133       C  0.97361287  0.43386434  0.17952894     0.37700
C1134       C  0.58198246  0.41803427  0.27007764     0.37700
C1135       C  0.01818784  0.37217905  0.27434424     0.36100
C1136       C  0.53567125  0.98287150  0.18192831     0.36100
N1137       N  0.01465516  0.35048633  0.29399838    -0.38700
N1138       N  0.53806421  0.00524293  0.16581861    -0.38700
N1139       N  0.60395131  0.41498094  0.28783097    -0.38100
N1140       N  0.95213161  0.43777424  0.16206777    -0.38100
C1141       C  0.54312533  0.16987540  0.55824452    -0.04800
C1142       C  0.53120359  0.13859031  0.52726532    -0.01900
C1143       C  0.50801984  0.12795469  0.47949161     0.03100
C1144       C  0.99993092  0.14846887  0.45271666    -0.04800
C1145       C  0.01506086  0.18033878  0.48063155    -0.01900
C1146       C  0.53496753  0.19119153  0.53450914     0.03100
C1147       C  0.54300164  0.11682264  0.54307846     0.37700
C1148       C  0.00901216  0.20392266  0.45763916     0.37700
C1149       C  0.54780360  0.22358412  0.56226708     0.36100
C1150       C  0.49267448  0.09487470  0.45469959     0.36100
N1151       N  0.06330456  0.24831189  0.57982512    -0.38700
N1152       N  0.48061408  0.06851916  0.43509851    -0.38700
N1153       N  0.00428097  0.22284777  0.43953356    -0.38100
N1154       N  0.55230896  0.09936732  0.55527576    -0.38100
C1155       C  0.96351945  0.13143342  0.03805509    -0.04800
C1156       C  0.96066737  0.10977750  0.98960783    -0.01900
C1157       C  0.97925931  0.11944956  0.94474424     0.03100
C1158       C  0.49873479  0.15272976  0.94840732    -0.04800
C1159       C  0.49929872  0.17460144  0.99539300    -0.01900
C1160       C  0.48222379  0.16436305  0.04170565     0.03100
C1161       C  0.93877490  0.07690627  0.98645059     0.37700
C1162       C  0.51905929  0.20795260  0.99875667     0.37700
C1163       C  0.48672433  0.18749253  0.09080168     0.36100
C1164       C  0.97777990  0.09529480  0.89979127     0.36100
N1165       N  0.49192273  0.20746280  0.12828674    -0.38700
N1166       N  0.97680784  0.07586205  0.86447586    -0.38700
N1167       N  0.53487404  0.23456906  0.00200406    -0.38100
N1168       N  0.92122942  0.05074175  0.98374588    -0.38100
C1169       C  0.93585048  0.22063077  0.21782437    -0.04800
C1170       C  0.92022219  0.21962122  0.16553504    -0.01900
C1171       C  0.90730626  0.24122356  0.16013265     0.03100
C1172       C  0.90769226  0.26216850  0.20821629    -0.04800
C1173       C  0.92795066  0.26629251  0.25756700    -0.01900
C1174       C  0.94231061  0.24593550  0.26179178     0.03100
C1175       C  0.91489757  0.19492460  0.11862014     0.37700
C1176       C  0.93426639  0.29122363  0.30476010     0.37700
C1177       C  0.96279803  0.25026514  0.31275332     0.36100
C1178       C  0.89235539  0.24060288  0.10567619     0.36100
N1179       N  0.97904609  0.25376811  0.35343865    -0.38700
N1180       N  0.88042422  0.24010816  0.06221782    -0.38700
N1181       N  0.94002922  0.31085502  0.34321185    -0.38100
N1182       N  0.91031197  0.17526979  0.08083694    -0.38100
C1183       C  0.92590963  0.00587425  0.26702630    -0.04800
C1184       C  0.95028182  0.49959125  0.29316526    -0.01900
C1185       C  0.94402727  0.46874792  0.29861197     0.03100
C1186       C  0.91245776  0.44372688  0.28299516    -0.04800
C1187       C  0.88723461  0.45086467  0.26530060    -0.01900
C1188       C  0.89402618  0.48157427  0.25680051     0.03100
C1189       C  0.98119608  0.02470599  0.31514578     0.37700
C1190       C  0.85411538  0.42718745  0.25960995     0.37700
C1191       C  0.86947107  0.98708636  0.22399733     0.36100
C1192       C  0.97100295  0.46317055  0.31825035     0.36100
N1193       N  0.84928870  0.99139384  0.20224828    -0.38700
N1194       N  0.99272054  0.45917574  0.33414651    -0.38700
N1195       N  0.82768837  0.40844097  0.25686358    -0.38100
N1196       N  0.50776415  0.04285799  0.32874125    -0.38100
C1197       C  0.85217714  0.10507338  0.26802039    -0.04800
C1198       C  0.83000116  0.07687181  0.23319505    -0.01900
C1199       C  0.79663592  0.06298784  0.24143337     0.03100
C1200       C  0.78508389  0.07646474  0.28609697    -0.04800
C1201       C  0.80794197  0.10455206  0.32161641    -0.01900
C1202       C  0.84044729  0.11915056  0.31105330     0.03100
C1203       C  0.84158474  0.06175689  0.18955806     0.37700
C1204       C  0.79865593  0.11969256  0.36921566     0.37700
C1205       C  0.86172021  0.14983025  0.34374464     0.36100
C1206       C  0.77446081  0.03436600  0.20462463     0.36100
N1207       N  0.87847003  0.17427077  0.36968813    -0.38700
N1208       N  0.75674129  0.01150590  0.17516905    -0.38700
N1209       N  0.79204454  0.13204228  0.40777732    -0.38100
N1210       N  0.85082118  0.04965278  0.15466600    -0.38100
C1211       C  0.54307907  0.10149585  0.23628433    -0.04800
C1212       C  0.55702953  0.09975514  0.28798432    -0.01900
C1213       C  0.57821806  0.08538888  0.28899496     0.03100
C1214       C  0.58914269  0.07670531  0.23845849    -0.05400
C1215       C  0.58142192  0.08670301  0.18921798    -0.01900
C1216       C  0.55777829  0.09796060  0.18792882     0.03100
C1217       C  0.55056826  0.11354688  0.34008565     0.37700
C1218       C  0.59729137  0.08555039  0.13912832     0.37700
C1219       C  0.54864496  0.10635159  0.13678643     0.36100
C1220       C  0.58705128  0.07837906  0.34175072     0.36100
N1221       N  0.54137748  0.11321386  0.09626399    -0.38700
N1222       N  0.59355324  0.07255713  0.38401162    -0.38700
N1223       N  0.60971046  0.08489980  0.09882925    -0.38100
N1224       N  0.54694668  0.12565581  0.38215081    -0.38100
O1225       O  0.96349225  0.60067441  0.11050395    -0.80400
O1226       O  0.98199132  0.61943730  0.35942557    -0.65000
O1227       O  0.93760186  0.59547984  0.21218195    -1.11700
C1228       C  0.94142439  0.69352694  0.23278270     1.06500
O1229       O  0.96254077  0.65272683  0.39386540    -0.78300
O1230       O  0.90745164  0.62883868  0.31527576    -0.65800
Ni1231     Ni  0.94530105  0.56898842  0.15633859     1.34900
C1232       C  0.88904670  0.62028335  0.26896698     0.85300
O1233       O  0.94978031  0.56241275  0.28864289    -0.78800
O1234       O  0.92779887  0.53646413  0.20019508    -0.89100
C1235       C  0.98116474  0.63962618  0.39882342     0.84800
O1236       O  0.48804832  0.57717607  0.18352899    -0.67300
O1237       O  0.93246819  0.68528343  0.27918781    -0.86600
C1238       C  0.50832075  0.59687374  0.22358800     0.85700
C1239       C  0.93453007  0.53696375  0.25231121     1.07200
H1240       H  0.98843575  0.66139150  0.28048134     0.39000
O1241       O  0.96571773  0.64766572  0.27906327    -1.09200
O1242       O  0.90075301  0.62575033  0.22193860    -0.65900
Ni1243     Ni  0.94567868  0.63683417  0.20350400     1.26300
O1244       O  0.00103281  0.61378470  0.26120335    -0.66100
O1245       O  0.95258032  0.67867806  0.19957266    -0.78400
C1246       C  0.95223051  0.61863351  0.09434479     0.85100
O1247       O  0.93320890  0.62616333  0.12328965    -0.65600
Ni1248     Ni  0.94715511  0.66616917  0.33202442     1.27400
Ni1249     Ni  0.95921051  0.60586891  0.28540291     1.26100
H1250       H  0.91500284  0.58393125  0.21577380     0.39600
O1251       O  0.85477578  0.81410986  0.09424885    -0.80400
O1252       O  0.86781788  0.81066792  0.35920230    -0.65000
O1253       O  0.85053279  0.82182440  0.20991749    -1.11700
C1254       C  0.96356355  0.88657540  0.24414649     1.06500
O1255       O  0.89346051  0.86265921  0.38161199    -0.78300
O1256       O  0.92327750  0.90638106  0.32085320    -0.65800
Ni1257     Ni  0.83717423  0.78751496  0.14887253     1.34900
C1258       C  0.90612791  0.91041925  0.28345761     0.85300
O1259       O  0.81639036  0.77995006  0.28014520    -0.78800
O1260       O  0.81535193  0.75663986  0.19374610    -0.89100
C1261       C  0.87588400  0.83629759  0.39378900     0.84800
O1262       O  0.87640948  0.78332938  0.16357895    -0.67300
O1263       O  0.96254409  0.88071969  0.29402150    -0.86600
C1264       C  0.88488195  0.77623312  0.20857994     0.85700
C1265       C  0.80691893  0.75530832  0.24288721     1.07200
H1266       H  0.91437162  0.83052393  0.26729578     0.39000
O1267       O  0.90167169  0.84161406  0.27687279    -1.09200
O1268       O  0.88682489  0.88773679  0.24539171    -0.65900
Ni1269     Ni  0.89403180  0.85269881  0.20942272     1.26300
O1270       O  0.87371869  0.78084614  0.25488492    -0.66100
O1271       O  0.93864581  0.87999488  0.20979774    -0.78400
C1272       C  0.86754919  0.84362530  0.09678332     0.85100
O1273       O  0.88379121  0.86292529  0.14069415    -0.65600
Ni1274     Ni  0.92785803  0.87109614  0.33797142     1.27400
Ni1275     Ni  0.85892922  0.81252787  0.28161939     1.26100
H1276       H  0.83558467  0.83106916  0.21133063     0.39600
O1277       O  0.68662975  0.54558905  0.39751090    -0.80400
O1278       O  0.70590085  0.55874537  0.14894510    -0.65000
O1279       O  0.68002167  0.56881950  0.29839860    -1.11700
C1280       C  0.59022109  0.97622285  0.22707511     1.06500
O1281       O  0.65824192  0.55257612  0.12902840    -0.78300
O1282       O  0.60795138  0.54056065  0.18087130    -0.65800
Ni1283     Ni  0.70806623  0.58380642  0.36530412     1.34900
C1284       C  0.60526371  0.55274625  0.22878843     0.85300
O1285       O  0.72624702  0.60868452  0.24191419    -0.78800
O1286       O  0.72975673  0.62258180  0.33683003    -0.89100
C1287       C  0.68161125  0.54889349  0.11176863     0.84800
O1288       O  0.74135265  0.57275630  0.34132445    -0.67300
O1289       O  0.59691105  0.98404556  0.17960769    -0.86600
C1290       C  0.74932689  0.56690524  0.29298775     0.85700
C1291       C  0.73629918  0.62900640  0.28767137     1.07200
H1292       H  0.66767771  0.50925461  0.21158167     0.39000
O1293       O  0.65949913  0.52481845  0.21546950    -1.09200
O1294       O  0.61720122  0.54822188  0.27325373    -0.65900
Ni1295     Ni  0.64509741  0.52812620  0.28754873     1.26300
O1296       O  0.72826732  0.55438626  0.24954347    -0.66100
O1297       O  0.60820044  0.99019042  0.27365429    -0.78400
C1298       C  0.65636542  0.53105126  0.40218428     0.85100
O1299       O  0.63606591  0.53098354  0.36449710    -0.65600
Ni1300     Ni  0.62914432  0.51644218  0.15256353     1.27400
Ni1301     Ni  0.69471092  0.56600665  0.22623306     1.26100
H1302       H  0.67113776  0.58375325  0.29868869     0.39600
O1303       O  0.87245261  0.91515828  0.89203830    -0.80400
O1304       O  0.86112255  0.89798255  0.64157701    -0.65000
O1305       O  0.84515575  0.91764715  0.79085376    -1.11700
C1306       C  0.76400507  0.81793009  0.77194309     1.06500
O1307       O  0.81268369  0.85788208  0.61127288    -0.78300
O1308       O  0.78098587  0.88050099  0.68620863    -0.65800
Ni1309     Ni  0.87720786  0.94618246  0.84724059     1.34900
C1310       C  0.77363085  0.89025592  0.73272713     0.85300
O1311       O  0.87674427  0.95374010  0.71382538    -0.78800
O1312       O  0.88293016  0.97789035  0.80354711    -0.89100
C1313       C  0.84123205  0.87576664  0.60370229     0.84800
O1314       O  0.91381529  0.94310333  0.81961108    -0.67300
O1315       O  0.76035330  0.82574646  0.72528090    -0.86600
C1316       C  0.91837300  0.92757640  0.77686096     0.85700
C1317       C  0.88367779  0.97848588  0.75093544     1.07200
H1318       H  0.84017914  0.85412521  0.72321357     0.39000
O1319       O  0.82760208  0.86589040  0.72447515    -1.09200
O1320       O  0.78238289  0.88411697  0.77908022    -0.65900
Ni1321     Ni  0.81938928  0.87568475  0.79949679     1.26300
O1322       O  0.89513518  0.90847395  0.73947649    -0.66100
O1323       O  0.79041326  0.83283764  0.80462465    -0.78400
C1324       C  0.84637941  0.89568681  0.90668231     0.85100
O1325       O  0.81908964  0.88742903  0.87819043    -0.65600
Ni1326     Ni  0.78922145  0.84464562  0.67265048     1.27400
Ni1327     Ni  0.85401281  0.90926954  0.71734363     1.26100
H1328       H  0.83122227  0.92779633  0.78788156     0.39600
O1329       O  0.62819971  0.94156045  0.60149692    -0.80400
O1330       O  0.64740037  0.95543815  0.85572992    -0.65000
O1331       O  0.60274996  0.93280403  0.70577390    -1.11700
C1332       C  0.60675600  0.53038986  0.71807573     1.06500
O1333       O  0.61421506  0.97499550  0.87951998    -0.78300
O1334       O  0.56876295  0.97295273  0.80787675    -0.65800
Ni1335     Ni  0.61106425  0.90837153  0.64673941     1.34900
C1336       C  0.55285367  0.96269000  0.75945112     0.85300
O1337       O  0.61325189  0.89789353  0.77982588    -0.78800
O1338       O  0.59422771  0.87490730  0.68924997    -0.89100
C1339       C  0.63867554  0.97090825  0.89284455     0.84800
O1340       O  0.65342776  0.91544370  0.67468657    -0.67300
O1341       O  0.60246744  0.52608565  0.76780688    -0.86600
C1342       C  0.67293481  0.93218285  0.71795746     0.85700
C1343       C  0.59765267  0.87330631  0.74152551     1.07200
H1344       H  0.65341110  0.99728228  0.77606712     0.39000
O1345       O  0.63065250  0.98367358  0.77453597    -1.09200
O1346       O  0.56639225  0.96384673  0.71443906    -0.65900
Ni1347     Ni  0.61077020  0.97415463  0.69897852     1.26300
O1348       O  0.66591856  0.94894149  0.75551937    -0.66100
O1349       O  0.61838549  0.51570769  0.68584968    -0.78400
C1350       C  0.61501972  0.95889495  0.58877365     0.85100
O1351       O  0.59581832  0.96378878  0.62037516    -0.65600
Ni1352     Ni  0.61290028  0.00171214  0.83016445     1.27400
Ni1353     Ni  0.62432174  0.94190681  0.77946808     1.26100
H1354       H  0.58006263  0.92123317  0.70882985     0.39600
O1355       O  0.55218640  0.64867154  0.63415916    -0.80400
O1356       O  0.52111214  0.64217182  0.85914933    -0.65000
O1357       O  0.52326754  0.66295492  0.71421810    -1.11700
C1358       C  0.63149118  0.73419938  0.79208992     1.06500
O1359       O  0.53561138  0.69175498  0.89498592    -0.78300
O1360       O  0.56447098  0.74121242  0.83619925    -0.65800
Ni1361     Ni  0.50937509  0.63047172  0.65084386     1.34900
C1362       C  0.56142813  0.74711457  0.78720133     0.85300
O1363       O  0.97884089  0.61575545  0.76627315    -0.78800
O1364       O  0.96822606  0.61072022  0.67286212    -0.89100
C1365       C  0.52000128  0.66252026  0.89775609     0.84800
O1366       O  0.51917028  0.59988461  0.67725231    -0.67300
O1367       O  0.61957032  0.73265684  0.83932522    -0.86600
C1368       C  0.53771099  0.60307490  0.71996624     0.85700
C1369       C  0.96058866  0.60191088  0.71955987     1.07200
H1370       H  0.57879363  0.67253049  0.80436257     0.39000
O1371       O  0.56468113  0.68225794  0.79929334    -1.09200
O1372       O  0.55984202  0.72846549  0.74264875    -0.65900
Ni1373     Ni  0.56866553  0.69246522  0.72624625     1.26300
O1374       O  0.54149505  0.62224788  0.76472208    -0.66100
O1375       O  0.61405215  0.72050482  0.74444077    -0.78400
C1376       C  0.55880096  0.67252649  0.61267986     0.85100
O1377       O  0.56950164  0.69828763  0.64745624    -0.65600
Ni1378     Ni  0.57708043  0.71223234  0.86468676     1.27400
Ni1379     Ni  0.52168711  0.65011555  0.78441417     1.26100
H1380       H  0.51028800  0.67421682  0.71250922     0.39600
C1381       C  0.56307286  0.77871230  0.78137632    -0.04800
C1382       C  0.58049802  0.80554630  0.82379523    -0.01900
C1383       C  0.58957153  0.83617044  0.81237847     0.03100
C1384       C  0.58294244  0.84087631  0.75742173    -0.04800
C1385       C  0.56169505  0.81384083  0.71756635    -0.01900
C1386       C  0.55142059  0.78332179  0.73012127     0.03100
C1387       C  0.59018169  0.80227756  0.87948199     0.37700
C1388       C  0.54960408  0.81667060  0.66320883     0.37700
C1389       C  0.52802213  0.75654432  0.69039555     0.36100
C1390       C  0.60545007  0.86252623  0.85831871     0.36100
N1391       N  0.00911618  0.73506077  0.65881435    -0.38700
N1392       N  0.61760534  0.88325312  0.89555312    -0.38700
N1393       N  0.53992918  0.81861760  0.61966573    -0.38100
N1394       N  0.59790024  0.80002762  0.92415394    -0.38100
C1395       C  0.59337224  0.55044400  0.69839572    -0.04800
C1396       C  0.60878629  0.58259433  0.72104639    -0.01900
C1397       C  0.59069467  0.59990252  0.72817309     0.03100
C1398       C  0.55668509  0.58471732  0.71483719    -0.04800
C1399       C  0.54164541  0.55281816  0.68889999    -0.01900
C1400       C  0.56019322  0.53618185  0.67856586     0.03100
C1401       C  0.64322157  0.59746743  0.73929792     0.37700
C1402       C  0.50680322  0.53625532  0.67654614     0.37700
C1403       C  0.54460704  0.50363608  0.65085406     0.36100
C1404       C  0.60758735  0.63333073  0.74847149     0.36100
N1405       N  0.54342549  0.98694659  0.62428588    -0.38700
N1406       N  0.62223918  0.65995085  0.76443643    -0.38700
N1407       N  0.47904134  0.52247768  0.66707899    -0.38100
N1408       N  0.67067687  0.60934751  0.75385072    -0.38100
C1409       C  0.89477363  0.01024276  0.73403722    -0.04800
C1410       C  0.89702897  0.53518314  0.77533341    -0.01900
C1411       C  0.91570704  0.56614755  0.76754643     0.03100
C1412       C  0.93138697  0.57177947  0.71890909    -0.04800
C1413       C  0.92337161  0.54625099  0.67402467    -0.01900
C1414       C  0.90629074  0.51514981  0.68292697     0.03100
C1415       C  0.87952849  0.03210908  0.82235173     0.37700
C1416       C  0.43289481  0.55111890  0.61961345     0.37700
C1417       C  0.90172025  0.48956553  0.63817497     0.36100
C1418       C  0.91922276  0.59224977  0.81025069     0.36100
N1419       N  0.89762608  0.96957140  0.60112351    -0.38700
N1420       N  0.92204367  0.61293522  0.84457423    -0.38700
N1421       N  0.44116074  0.55492174  0.57573536    -0.38100
N1422       N  0.86588840  0.02889203  0.86167245    -0.38100
C1423       C  0.73463966  0.79198969  0.78683215    -0.04800
C1424       C  0.71681666  0.76519073  0.74516200    -0.01900
C1425       C  0.68382620  0.74578503  0.74782257     0.03100
C1426       C  0.66770676  0.75283776  0.79257070    -0.04800
C1427       C  0.68676417  0.77793261  0.83737232    -0.01900
C1428       C  0.71997114  0.79706617  0.83455635     0.03100
C1429       C  0.73241008  0.75813064  0.69796836     0.37700
C1430       C  0.67229265  0.78560937  0.88552674     0.37700
C1431       C  0.73855776  0.82306147  0.87969411     0.36100
C1432       C  0.66680257  0.71877979  0.70345309     0.36100
N1433       N  0.75319012  0.84353362  0.91628602    -0.38700
N1434       N  0.65347680  0.69744477  0.66763844    -0.38700
N1435       N  0.66106320  0.79191322  0.92428120    -0.38100
N1436       N  0.74482390  0.75260918  0.66029960    -0.38100
C1437       C  0.70411341  0.92970825  0.72556220    -0.04800
C1438       C  0.71474549  0.92454792  0.77729251    -0.01900
C1439       C  0.73930360  0.91438705  0.78082650     0.03100
C1440       C  0.75266860  0.90749639  0.73194033    -0.04800
C1441       C  0.74389903  0.91550131  0.68120614    -0.01900
C1442       C  0.72012068  0.92666275  0.67840653     0.03100
C1443       C  0.69867810  0.92656808  0.82668255     0.37700
C1444       C  0.75850352  0.91194625  0.63055501     0.37700
C1445       C  0.71131731  0.93405776  0.62582567     0.36100
C1446       C  0.74959056  0.91013164  0.83531224     0.36100
N1447       N  0.70420167  0.93968506  0.58379177    -0.38700
N1448       N  0.75755155  0.90694253  0.87906850    -0.38700
N1449       N  0.76973896  0.90917897  0.58961991    -0.38100
N1450       N  0.68683829  0.92728809  0.86758828    -0.38100
C1451       C  0.95320772  0.93518285  0.77018096    -0.04800
C1452       C  0.97621955  0.96717893  0.78023406    -0.01900
C1453       C  0.00953376  0.97577872  0.78063799     0.03100
C1454       C  0.51726087  0.95231239  0.75676253    -0.04800
C1455       C  0.99803136  0.92095837  0.75440707    -0.01900
C1456       C  0.96455248  0.91208390  0.75812084     0.03100
C1457       C  0.96593096  0.99193316  0.79008036     0.37700
C1458       C  0.50549380  0.89709558  0.72234995     0.37700
C1459       C  0.94223700  0.87930003  0.75241702     0.36100
C1460       C  0.52916276  0.00734754  0.79511612     0.36100
N1461       N  0.92453036  0.85304544  0.74774914    -0.38700
N1462       N  0.55073939  0.53436748  0.81840371    -0.38700
N1463       N  0.51412655  0.87838573  0.70617768    -0.38100
N1464       N  0.95838984  0.01209097  0.79824284    -0.38100
C1465       C  0.62542637  0.97689194  0.54115345    -0.04800
C1466       C  0.65623684  0.49670106  0.53920276    -0.01900
C1467       C  0.66669896  0.51527534  0.49655794     0.03100
C1468       C  0.64471709  0.51240985  0.45016300    -0.04800
C1469       C  0.61298080  0.99187934  0.45272977    -0.01900
C1470       C  0.60297191  0.97398689  0.49647153     0.03100
C1471       C  0.67912216  0.50098255  0.58654914     0.37700
C1472       C  0.58857473  0.98776092  0.40829034     0.37700
C1473       C  0.56940374  0.95178980  0.49472727     0.36100
C1474       C  0.70023528  0.53816067  0.50256139     0.36100
N1475       N  0.54265507  0.93399045  0.49315675    -0.38700
N1476       N  0.72703102  0.55641130  0.50801556    -0.38700
N1477       N  0.56870264  0.98429458  0.37343895    -0.38100
N1478       N  0.69725640  0.50440223  0.62445881    -0.38100
C1479       C  0.67548924  0.52576475  0.05731875    -0.04800
C1480       C  0.70041249  0.52582113  0.02498122    -0.01900
C1481       C  0.69243088  0.50668990  0.97033705     0.03100
C1482       C  0.65345261  0.98306968  0.95337023    -0.04800
C1483       C  0.63149301  0.98148771  0.99245595    -0.01900
C1484       C  0.64319121  0.50297058  0.03582700     0.03100
C1485       C  0.73363036  0.54767445  0.04489181     0.37700
C1486       C  0.59855464  0.95667383  0.98100756     0.37700
C1487       C  0.61485931  0.50572106  0.05368738     0.36100
C1488       C  0.71688851  0.51128065  0.93262201     0.36100
N1489       N  0.59046433  0.01370324  0.07174870    -0.38700
N1490       N  0.73649427  0.51500248  0.90255059    -0.38700
N1491       N  0.57234134  0.93713567  0.97138726    -0.38100
N1492       N  0.76017481  0.56508628  0.06100731    -0.38100
C1493       C  0.86151579  0.85587081  0.04716372    -0.04800
C1494       C  0.87627962  0.85318452  0.99848048    -0.01900
C1495       C  0.87054597  0.86553488  0.95198278     0.03100
C1496       C  0.84950244  0.88014655  0.95366158    -0.04800
C1497       C  0.83418534  0.88212250  0.00197938    -0.01900
C1498       C  0.83972158  0.86947560  0.04819969     0.03100
C1499       C  0.89737732  0.83778531  0.99630630     0.37700
C1500       C  0.81435111  0.89881550  0.00552019     0.37700
C1501       C  0.82181986  0.86914351  0.09592413     0.36100
C1502       C  0.88676783  0.86356385  0.90265977     0.36100
N1503       N  0.80696944  0.86820676  0.13339923    -0.38700
N1504       N  0.89999097  0.86226717  0.86362436    -0.38700
N1505       N  0.79882433  0.91244392  0.00858393    -0.38100
N1506       N  0.91404507  0.82533663  0.99431980    -0.38100
C1507       C  0.85117587  0.86736701  0.54871734    -0.04800
C1508       C  0.87935937  0.86264074  0.54697034    -0.01900
C1509       C  0.88506561  0.84777016  0.49702081     0.03100
C1510       C  0.86318565  0.83822779  0.44783127    -0.04800
C1511       C  0.83548754  0.84364764  0.44892982    -0.01900
C1512       C  0.82923472  0.85767577  0.49916910     0.03100
C1513       C  0.90292185  0.87335164  0.59609666     0.37700
C1514       C  0.81516827  0.83782796  0.39690913     0.37700
C1515       C  0.80075830  0.86331351  0.49871081     0.36100
C1516       C  0.91477480  0.84427744  0.49488110     0.36100
N1517       N  0.77782428  0.86742549  0.49700611    -0.38700
N1518       N  0.93852627  0.84168400  0.49284744    -0.38700
N1519       N  0.79930696  0.83386402  0.35545228    -0.38100
N1520       N  0.92233795  0.88226969  0.63452073    -0.38100
C1521       C  0.75673462  0.66197675  0.28219620    -0.04800
C1522       C  0.77887578  0.66789901  0.24221412    -0.01900
C1523       C  0.79406723  0.69782091  0.22828481     0.03100
C1524       C  0.78929003  0.72332248  0.25717506    -0.04800
C1525       C  0.76904164  0.71780317  0.30054991    -0.01900
C1526       C  0.75240007  0.68719242  0.31231353     0.03100
C1527       C  0.78635335  0.64309260  0.21487559     0.37700
C1528       C  0.76406357  0.74315091  0.33182789     0.37700
C1529       C  0.72983865  0.68167126  0.35390723     0.36100
C1530       C  0.81409264  0.70121535  0.18285311     0.36100
N1531       N  0.71189941  0.67748397  0.38717974    -0.38700
N1532       N  0.82899597  0.70254486  0.14539406    -0.38700
N1533       N  0.75993920  0.76317128  0.35724393    -0.38100
N1534       N  0.79237333  0.62360401  0.19246300    -0.38100
C1535       C  0.99556992  0.90446919  0.22787913    -0.04800
C1536       C  0.50009652  0.93106703  0.20118785    -0.01900
C1537       C  0.53140423  0.95441506  0.20230054     0.03100
C1538       C  0.55797965  0.95129883  0.22714001    -0.04800
C1539       C  0.55329185  0.92475889  0.25052565    -0.01900
C1540       C  0.52180885  0.90154270  0.25044306     0.03100
C1541       C  0.97317170  0.93243253  0.17192890     0.37700
C1542       C  0.58068258  0.92172449  0.27577084     0.37700
C1543       C  0.01784422  0.87404328  0.27650862     0.36100
C1544       C  0.53700029  0.47640255  0.16764354     0.36100
N1545       N  0.01428439  0.85269211  0.29726973    -0.38700
N1546       N  0.53939567  0.49671271  0.14468789    -0.38700
N1547       N  0.60248585  0.91940060  0.29634771    -0.38100
N1548       N  0.95175444  0.93517665  0.15079852    -0.38100
C1549       C  0.54543178  0.66717314  0.55207880    -0.04800
C1550       C  0.53342169  0.63639382  0.51965177    -0.01900
C1551       C  0.51041079  0.62683008  0.47208532     0.03100
C1552       C  0.00333594  0.64914713  0.45263285    -0.04800
C1553       C  0.01893050  0.68102663  0.48022989    -0.01900
C1554       C  0.53907258  0.68968160  0.52899267     0.03100
C1555       C  0.54475668  0.61411493  0.53449037     0.37700
C1556       C  0.01497257  0.70505655  0.45503355     0.37700
C1557       C  0.55383828  0.72208815  0.55719289     0.36100
C1558       C  0.49391977  0.59385755  0.44706462     0.36100
N1559       N  0.06639226  0.74856299  0.58105415    -0.38700
N1560       N  0.48066851  0.56748695  0.42784199    -0.38700
N1561       N  0.01211153  0.72437751  0.43499755    -0.38100
N1562       N  0.55375337  0.59632673  0.54604594    -0.38100
C1563       C  0.96394608  0.63136827  0.04199380    -0.04800
C1564       C  0.96070710  0.61007790  0.99280900    -0.01900
C1565       C  0.97939373  0.62006873  0.94828157     0.03100
C1566       C  0.49927910  0.65175489  0.94523062    -0.04800
C1567       C  0.49857616  0.67353232  0.99111810    -0.01900
C1568       C  0.48251388  0.66318313  0.03837292     0.03100
C1569       C  0.93855765  0.57719726  0.98873839     0.37700
C1570       C  0.51502782  0.70697840  0.99142635     0.37700
C1571       C  0.48851377  0.68621206  0.08840620     0.36100
C1572       C  0.97846409  0.59603420  0.90354983     0.36100
N1573       N  0.49525625  0.70601818  0.12686295    -0.38700
N1574       N  0.97797019  0.57665489  0.86860157    -0.38700
N1575       N  0.52784942  0.73368924  0.99194953    -0.38100
N1576       N  0.92082155  0.55103651  0.98536695    -0.38100
C1577       C  0.93657520  0.72043938  0.21807143    -0.04800
C1578       C  0.92034933  0.71866648  0.16589572    -0.01900
C1579       C  0.90703473  0.73992874  0.16008913     0.03100
C1580       C  0.90757853  0.76121511  0.20781981    -0.04800
C1581       C  0.92845569  0.76606054  0.25681076    -0.01900
C1582       C  0.94369040  0.74639556  0.26082191     0.03100
C1583       C  0.91573847  0.69412098  0.11913883     0.37700
C1584       C  0.93474927  0.79118503  0.30356009     0.37700
C1585       C  0.96675868  0.75269411  0.30926559     0.36100
C1586       C  0.89204921  0.73895991  0.10544340     0.36100
N1587       N  0.98548162  0.75788955  0.34740351    -0.38700
N1588       N  0.88024990  0.73820732  0.06169000    -0.38700
N1589       N  0.94044153  0.81099491  0.34165485    -0.38100
N1590       N  0.91195455  0.67468638  0.08143512    -0.38100
C1591       C  0.92582127  0.50600665  0.26966530    -0.04800
C1592       C  0.94940406  0.99968157  0.29489284    -0.01900
C1593       C  0.94285580  0.96882646  0.30104624     0.03100
C1594       C  0.91165273  0.94360349  0.28260686    -0.04800
C1595       C  0.88712295  0.95056334  0.26070164    -0.01900
C1596       C  0.89447756  0.98115944  0.25080595     0.03100
C1597       C  0.98264189  0.52443054  0.30946372     0.37700
C1598       C  0.85398438  0.92672676  0.25133338     0.37700
C1599       C  0.86813364  0.48805140  0.23536243     0.36100
C1600       C  0.96931416  0.96343686  0.32403098     0.36100
N1601       N  0.84733476  0.49301582  0.21814974    -0.38700
N1602       N  0.99051635  0.95940391  0.34242521    -0.38700
N1603       N  0.82746004  0.90786493  0.24549760    -0.38100
N1604       N  0.50741707  0.54418371  0.32724205    -0.38100
C1605       C  0.85305455  0.60591785  0.27276381    -0.04800
C1606       C  0.83062413  0.57861778  0.23595445    -0.01900
C1607       C  0.79708323  0.56498683  0.24315877     0.03100
C1608       C  0.78525704  0.57825648  0.28771787    -0.04800
C1609       C  0.80816734  0.60576550  0.32453900    -0.01900
C1610       C  0.84125619  0.61936200  0.31676743     0.03100
C1611       C  0.84211499  0.56395976  0.19139286     0.37700
C1612       C  0.79820926  0.62166000  0.37003554     0.37700
C1613       C  0.86314337  0.64833014  0.35378359     0.36100
C1614       C  0.77493484  0.53693996  0.20492996     0.36100
N1615       N  0.88047995  0.67127898  0.38347545    -0.38700
N1616       N  0.75727422  0.51453624  0.17433222    -0.38700
N1617       N  0.79092859  0.63466909  0.40668713    -0.38100
N1618       N  0.85121709  0.55215643  0.15578615    -0.38100
C1619       C  0.54125778  0.59791719  0.22828465    -0.04800
C1620       C  0.55655831  0.59791321  0.28007061    -0.01900
C1621       C  0.57734733  0.58311476  0.28153546     0.03100
C1622       C  0.58676213  0.57240410  0.23084227    -0.05400
C1623       C  0.57794186  0.58082844  0.18055585    -0.01900
C1624       C  0.55433472  0.59213351  0.17903967     0.03100
C1625       C  0.55200551  0.61401533  0.33162080     0.37700
C1626       C  0.59321216  0.57874325  0.13004217     0.37700
C1627       C  0.54377019  0.59845880  0.12673249     0.36100
C1628       C  0.58775229  0.57824316  0.33524788     0.36100
N1629       N  0.53534585  0.60361792  0.08522346    -0.38700
N1630       N  0.59559126  0.57419676  0.37833016    -0.38700
N1631       N  0.60532949  0.57759712  0.08952455    -0.38100
N1632       N  0.54988434  0.62793221  0.37300856    -0.38100
loop_ 
_geom_bond_atom_site_label_1 
_geom_bond_atom_site_label_2 
_geom_bond_distance 
_geom_bond_site_symmetry_2 
_ccdc_geom_bond_type 
O1           Ni7   1.929       .  S
O1           C22   1.275       .  A
O2          Ni25   1.920       .  S
O2           C11   1.276       .  A
O3           Ni7   1.877       .  S
O3          Ni25   1.891       .  S
O3          Ni19   1.901       .  S
O3           H26   0.965       .  S
C4           O21   1.268       .  A
C4           O13   1.270       .  A
C4          C353   1.486       .  S
O5          Ni24   1.927       .  S
O5           C11   1.272       .  A
O6          Ni24   1.905       .  S
O6            C8   1.276       .  A
Ni7          O10   1.919       .  S
Ni7         O828   1.911       .  S
C8           O18   1.294       .  A
C8          C381   1.508       .  S
O9          Ni25   1.954       .  S
O9           C15   1.290       .  A
O10          C15   1.280       .  A
C11         C328   1.507       .  S
O12        Ni823   1.911       .  S
O12          C14   1.270   1_655  A
O13         Ni24   1.926       .  S
C14         O836   1.272       .  A
C14         C395   1.498       .  S
C15         C367   1.492       .  S
H16          O17   0.966       .  S
O17         Ni25   1.928       .  S
O17         Ni19   1.910       .  S
O17         Ni24   1.897       .  S
O18         Ni19   1.995       .  S
Ni19         O23   1.934       .  S
Ni19         O21   1.912       .  S
O20         Ni25   1.934       .  S
O20         C830   1.271       .  A
C22          O23   1.283       .  A
C22         C339   1.507       .  S
O27         Ni33   1.924       .  S
O27          C48   1.270       .  A
O28         Ni51   1.921       .  S
O28          C37   1.280       .  A
O29         Ni33   1.907       .  S
O29         Ni51   1.914       .  S
O29         Ni45   1.929       .  S
O29          H52   0.966       .  S
C30          O47   1.284       .  A
C30          O39   1.277       .  A
C30         C311   1.466       .  S
O31         Ni50   1.882       .  S
O31          C37   1.266       .  A
O32         Ni50   1.900       .  S
O32          C34   1.267       .  A
Ni33         O36   1.914       .  S
Ni33         O38   1.932       .  S
C34          O44   1.279       .  A
C34         C370   1.507       .  S
O35         Ni51   1.918       .  S
O35          C41   1.275       .  A
O36          C41   1.269       .  A
C37         C286   1.463       .  S
O38          C40   1.281       .  A
O39         Ni50   1.893       .  S
C40          O46   1.284       .  A
C40         C356   1.501       .  S
C41         C300   1.498       .  S
H42          O43   0.962       .  S
O43         Ni51   1.890       .  S
O43         Ni45   1.851       .  S
O43         Ni50   1.854       .  S
O44         Ni45   1.942       .  S
Ni45         O49   1.900       .  S
Ni45         O47   1.918       .  S
O46         Ni51   1.953       .  S
C48          O49   1.268       .  A
C48         C269   1.475       .  S
O53         Ni59   1.962       .  S
O53          C74   1.284       .  A
O54         Ni77   1.989       .  S
O54          C63   1.276       .  A
O55         Ni59   1.868       .  S
O55         Ni77   1.911       .  S
O55         Ni71   1.893       .  S
O55          H78   0.966       .  S
C56          O73   1.279       .  A
C56          O65   1.268       .  A
C56         C314   1.455       .  S
O57         Ni76   1.870       .  S
O57          C63   1.246       .  A
O58         Ni76   1.888       .  S
O58          C60   1.259       .  A
Ni59         O62   1.938       .  S
Ni59         O64   1.912       .  S
C60          O70   1.275       .  A
C60         C398   1.516       .  S
O61         Ni77   1.913       .  S
O61          C67   1.288       .  A
O62          C67   1.289       .  A
C63         C255   1.530       .  S
O64          C66   1.270       .  A
O65        Ni484   1.878       .  S
C66          O72   1.280       .  A
C66         C384   1.522       .  S
C67         C297   1.482       .  S
H68          O69   0.966       .  S
O69         Ni77   1.918       .  S
O69         Ni71   1.903       .  S
O69         Ni76   1.893       .  S
O70         Ni71   1.957       .  S
Ni71         O75   1.924       .  S
Ni71        O481   1.907   1_545  S
O72         Ni77   1.940       .  S
O73        Ni479   1.915       .  S
C74          O75   1.274       .  A
C74         C244   1.537       .  S
Ni76        O473   1.881   1_545  S
O79         Ni85   1.911       .  S
O79         C100   1.273       .  A
O80        Ni103   1.918       .  S
O80          C89   1.275       .  A
O81         Ni85   1.865       .  S
O81        Ni103   1.871       .  S
O81         Ni97   1.899       .  S
O81         H104   0.964       .  S
C82          O99   1.276       .  A
C82          O91   1.267       .  A
C82         C199   1.496       .  S
O83        Ni102   1.905       .  S
O83          C89   1.268       .  A
O84        Ni102   1.908       .  S
O84          C86   1.275       .  A
Ni85         O88   1.909       .  S
Ni85         O90   1.902       .  S
C86          O96   1.288       .  A
C86         C216   1.516       .  S
O87        Ni103   1.951       .  S
O87          C93   1.291       .  A
O88          C93   1.280       .  A
C89         C283   1.485       .  S
O90          C92   1.268       .  A
O91        Ni102   1.918       .  S
C92          O98   1.283       .  A
C92         C227   1.513       .  S
C93         C185   1.512       .  S
H94          O95   0.966       .  S
O95        Ni103   1.947       .  S
O95         Ni97   1.909       .  S
O95        Ni102   1.912       .  S
O96         Ni97   1.968       .  S
Ni97        O101   1.912       .  S
Ni97         O99   1.938       .  S
O98        Ni103   1.966       .  S
C100        O101   1.278       .  A
C100        C272   1.481       .  S
O105       Ni111   1.973       .  S
O105        C126   1.285       .  A
O106       Ni129   1.944       .  S
O106        C115   1.276       .  A
O107       Ni111   1.883       .  S
O107       Ni129   1.891       .  S
O107       Ni123   1.886       .  S
O107        H130   0.965       .  S
C108        O125   1.263       .  A
C108        O117   1.260       .  A
C108        C171   1.463       .  S
O109       Ni128   1.893       .  S
O109        C115   1.266       .  A
O110       Ni128   1.923       .  S
O110        C112   1.279       .  A
Ni111       O114   1.944       .  S
Ni111       O116   1.911       .  S
C112        O122   1.287       .  A
C112        C230   1.502       .  S
O113       Ni129   1.941       .  S
O113        C119   1.289       .  A
O114        C119   1.289       .  A
C115        C258   1.491       .  S
O116        C118   1.270       .  A
O117       Ni536   1.898       .  S
C118        O124   1.274       .  A
C118        C213   1.502       .  S
C119        C160   1.524       .  S
H120        O121   0.966       .  S
O121       Ni129   1.936       .  S
O121       Ni123   1.917       .  S
O121       Ni128   1.906       .  S
O122       Ni123   1.977       .  S
Ni123       O127   1.911       .  S
Ni123       O533   1.912       .  S
O124       Ni129   1.936       .  S
O125       Ni531   1.910   1_545  S
C126        O127   1.273       .  A
C126        C241   1.516       .  S
Ni128       O525   1.894       .  S
O131       Ni137   1.875       .  S
O131        C152   1.247       .  A
O132       Ni155   1.907       .  S
O132        C141   1.274       .  A
O133       Ni137   1.889       .  S
O133       Ni155   1.884       .  S
O133       Ni149   1.940       .  S
O133        H156   0.966       .  S
C134        O151   1.288       .  A
C134        O143   1.289       .  A
C134        C202   1.516       .  S
O135       Ni154   1.971       .  S
O135        C141   1.288       .  A
O136       Ni154   1.918       .  S
O136        C138   1.274       .  A
Ni137       O142   1.889       .  S
Ni137       O956   1.905   1_455  S
C138        O148   1.277       .  A
C138        C157   1.512       .  S
O139       Ni971   1.946       .  S
O139        C145   1.288       .  A
O140       Ni953   1.902       .  S
O140        C145   1.275       .  A
C141        C342   1.535   1_455  S
O142        C144   1.260       .  A
O143       Ni154   1.953       .  S
C144        O150   1.270       .  A
C144        C174   1.480       .  S
C145        C188   1.498       .  S
H146        O147   0.962       .  S
O147       Ni155   1.900       .  S
O147       Ni149   1.900       .  S
O147       Ni154   1.863       .  S
O148       Ni149   1.927       .  S
Ni149       O153   1.970       .  S
Ni149       O151   1.930       .  S
O150       Ni155   1.937       .  S
C152        O153   1.275       .  A
C152        C325   1.510       .  S
Ni155       O955   1.941   1_455  S
C157        C158   1.421       .  A
C157        C162   1.413       .  A
C158        C159   1.419       .  A
C158        C163   1.453       .  S
C159        C160   1.425       .  A
C159        C166   1.452       .  S
C160        C161   1.427       .  A
C161        C162   1.418       .  A
C161        C164   1.451       .  S
C162        C165   1.452       .  S
C163        N170   1.158       .  T
C164        N169   1.157       .  T
C165        N983   1.157       .  T
C166        N168   1.157       .  T
N167        C981   1.157       .  T
C171        C172   1.405       .  A
C171        C176   1.410       .  A
C172        C173   1.408       .  A
C172        C177   1.452       .  S
C173        C174   1.417       .  A
C173        C180   1.448       .  S
C174        C175   1.413       .  A
C175        C176   1.406       .  A
C175        C178   1.450       .  S
C176        C179   1.452       .  S
C177        N184   1.157       .  T
C178        N183   1.156   1_455  T
C179        N589   1.157   1_545  T
C180        N182   1.157       .  T
N181        C587   1.157       .  T
C185        C594   1.429       .  A
C185        C598   1.420       .  A
C186        C187   1.411       .  A
C186        C593   1.426       .  A
C186        C599   1.452       .  S
C187        C188   1.408       .  A
C187        C194   1.452       .  S
C188        C189   1.422       .  A
C189        C190   1.414       .  A
C189       C1008   1.453       .  S
C190        C593   1.418       .  A
C190        C193   1.452   1_545  S
C191        C594   1.453       .  S
C191        N198   1.158       .  T
C192       C1005   1.453       .  S
C192        N197   1.158       .  T
C193        N603   1.158       .  T
C194        N196   1.157       .  T
N195        C601   1.158       .  T
C199        C200   1.413       .  A
C199        C204   1.409       .  A
C200        C201   1.415       .  A
C200        C205   1.453       .  S
C201        C202   1.423       .  A
C201        C208   1.452       .  S
C202        C203   1.426       .  A
C203        C204   1.419       .  A
C203        C206   1.450       .  S
C204        C207   1.448       .  S
C205        N212   1.157       .  T
C206        N211   1.157       .  T
C207        N209   1.156       .  T
C208        N210   1.158       .  T
C213        C214   1.417       .  A
C213        C218   1.414       .  A
C214        C215   1.415       .  A
C214        C219   1.449       .  S
C215        C216   1.419       .  A
C215        C222   1.451       .  S
C216        C217   1.425       .  A
C217        C218   1.417       .  A
C217        C220   1.452       .  S
C218        C221   1.452       .  S
C219        N226   1.156       .  T
C220        N225   1.158       .  T
C221        N223   1.157       .  T
C222        N224   1.157       .  T
C227        C228   1.422       .  A
C227        C232   1.417       .  A
C228        C229   1.412       .  A
C228        C233   1.452       .  S
C229       C1046   1.412       .  A
C229       C1052   1.452       .  S
C230       C1045   1.411       .  A
C230       C1047   1.417   1_455  A
C231        C232   1.428       .  A
C231       C1046   1.417       .  A
C231       C1050   1.448       .  S
C232        C235   1.448       .  S
C233        N240   1.156       .  T
C234       C1047   1.448   1_455  S
C234        N239   1.157       .  T
C235        N237   1.157       .  T
C236       C1045   1.453       .  S
C236        N646   1.157       .  T
N238        C644   1.157       .  T
C241        C246   1.413       .  A
C241        C650   1.415       .  A
C242        C243   1.422   1_565  A
C242        C649   1.413       .  A
C242        C247   1.453   1_565  S
C243        C244   1.429       .  A
C243        C250   1.451       .  S
C244        C653   1.432   1_545  A
C245        C246   1.428       .  A
C245        C652   1.431       .  A
C245        C248   1.450       .  S
C246        C249   1.451       .  S
C247        N254   1.157       .  T
C248        N253   1.157       .  T
C249        N251   1.157       .  T
C250        N252   1.158       .  T
C255        C256   1.420       .  A
C255        C260   1.437       .  A
C256        C257   1.433   1_554  A
C256        C261   1.448       .  S
C257        C666   1.419   1_545  A
C257        C264   1.447       .  S
C258        C259   1.396       .  A
C258        C665   1.418       .  A
C259        C668   1.406   1_556  A
C259        C262   1.455       .  S
C260        C667   1.408   1_544  A
C260        C263   1.450       .  S
C261        N268   1.157       .  T
C262        N267   1.157       .  T
C263        N673   1.157       .  T
C264        N266   1.157       .  T
N265        C671   1.157       .  T
C269        C270   1.405       .  A
C269        C274   1.414       .  A
C270        C271   1.408   1_554  A
C270        C275   1.451       .  S
C271        C272   1.419       .  A
C271        C278   1.451       .  S
C272        C273   1.408   1_556  A
C273        C274   1.411       .  A
C273        C276   1.450       .  S
C274        C277   1.449       .  S
C275        N282   1.157       .  T
C276        N281   1.157       .  T
C277        N279   1.157       .  T
C278        N280   1.157       .  T
C283        C284   1.415       .  A
C283        C288   1.416       .  A
C284        C285   1.409       .  A
C284        C289   1.444       .  S
C285        C286   1.407       .  A
C285        C292   1.453       .  S
C286        C287   1.410       .  A
C287        C288   1.409       .  A
C287        C290   1.453       .  S
C288        C291   1.451       .  S
C289        N296   1.155       .  T
C290        N295   1.157       .  T
C291        N293   1.157       .  T
C292        N294   1.157       .  T
C297        C298   1.406       .  A
C297        C302   1.417       .  A
C298        C299   1.403       .  A
C298        C303   1.457       .  S
C299        C300   1.428       .  A
C299        C306   1.450       .  S
C300        C301   1.413       .  A
C301        C302   1.415       .  A
C301        C304   1.449       .  S
C302        C305   1.451       .  S
C303        N310   1.157       .  T
C304        N309   1.157       .  T
C305        N307   1.157       .  T
C306        N308   1.155       .  T
C311       C1128   1.410       .  A
C311       C1132   1.419       .  A
C312        C313   1.394       .  A
C312       C1127   1.411   1_455  A
C312       C1133   1.457   1_455  S
C313        C314   1.415       .  A
C313        C728   1.456       .  S
C314        C315   1.403       .  A
C315        C316   1.403       .  A
C315        C318   1.451       .  S
C316       C1127   1.418   1_455  A
C316       C1135   1.452       .  S
C317       C1128   1.456       .  S
C317        N324   1.158       .  T
C318        N323   1.157       .  T
C319       C1132   1.452       .  S
C319        N321   1.157       .  T
C320        C721   1.456       .  S
C320        N322   1.157   1_565  T
C325        C326   1.428       .  A
C325        C330   1.412       .  A
C326        C327   1.410       .  A
C326        C331   1.455       .  S
C327       C1144   1.409   1_455  A
C327        C334   1.452   1_455  S
C328        C329   1.426       .  A
C328       C1143   1.408       .  A
C329       C1146   1.421       .  A
C329        C332   1.450       .  S
C330       C1145   1.421       .  A
C330        C333   1.449       .  S
C331        N338   1.158       .  T
C332        N337   1.157       .  T
C333       N1151   1.157       .  T
C334        N336   1.157       .  T
N335       C1149   1.157       .  T
C339        C340   1.413   1_554  A
C339       C1160   1.415       .  A
C340        C341   1.419       .  A
C340        C345   1.454       .  S
C341       C1158   1.430       .  A
C341        C348   1.451       .  S
C342        C343   1.426   1_655  A
C342       C1157   1.430       .  A
C343        C344   1.425   1_456  A
C343        C346   1.452       .  S
C344       C1155   1.416       .  A
C344        C347   1.447       .  S
C345        N352   1.157       .  T
C346        N351   1.158       .  T
C347        N349   1.157       .  T
C348        N350   1.157       .  T
C353        C354   1.413       .  A
C353        C358   1.412       .  A
C354        C355   1.416       .  A
C354        C359   1.450       .  S
C355        C356   1.419       .  A
C355        C362   1.451       .  S
C356        C357   1.419       .  A
C357        C358   1.405       .  A
C357        C360   1.452       .  S
C358        C361   1.453       .  S
C359        N366   1.157       .  T
C360        N365   1.158       .  T
C361        N363   1.157       .  T
C362        N364   1.158       .  T
C367        C776   1.407   1_545  A
C367        C780   1.417   1_545  A
C368        C369   1.411       .  A
C368        C775   1.409       .  A
C368        C781   1.447       .  S
C369        C370   1.426       .  A
C369        C376   1.455       .  S
C370        C371   1.414       .  A
C371        C372   1.419       .  A
C371        C374   1.448       .  S
C372        C775   1.417       .  A
C372        C783   1.450       .  S
C373        C776   1.448   1_545  S
C373       N1196   1.155       .  T
C374        N379   1.157       .  T
C375        C780   1.449       .  S
C375        N377   1.157       .  T
C376        N378   1.158       .  T
N380       C1189   1.155   1_455  T
C381        C382   1.415       .  A
C381        C386   1.415       .  A
C382        C383   1.429       .  A
C382        C387   1.448       .  S
C383        C384   1.423       .  A
C383        C390   1.448       .  S
C384        C385   1.430       .  A
C385        C386   1.412       .  A
C385        C388   1.454       .  S
C386        C389   1.457       .  S
C387        N394   1.157       .  T
C388        N393   1.158       .  T
C389        N391   1.158       .  T
C390        N392   1.157       .  T
C395        C396   1.410       .  A
C395        C400   1.405       .  A
C396        C397   1.418       .  A
C396        C401   1.444       .  S
C397        C398   1.421       .  A
C397        C404   1.450       .  S
C398        C399   1.432       .  A
C399        C400   1.412       .  A
C399        C402   1.452       .  S
C400        C403   1.453       .  S
C401        N408   1.155       .  T
C402        N407   1.157       .  T
C403        N405   1.158       .  T
C404        N406   1.158       .  T
O409       Ni415   1.930       .  S
O409        C430   1.276       .  A
O410       Ni433   1.910       .  S
O410        C419   1.274       .  A
O411       Ni415   1.874       .  S
O411       Ni433   1.884       .  S
O411       Ni427   1.905       .  S
O411        H434   0.965       .  S
C412        O429   1.270       .  A
C412        O421   1.272       .  A
C412        C761   1.490       .  S
O413       Ni432   1.932       .  S
O413        C419   1.274       .  A
O414       Ni432   1.910       .  S
O414        C416   1.278       .  A
Ni415       O418   1.923       .  S
Ni415      O1236   1.909       .  S
C416        O426   1.295       .  A
C416        C789   1.514       .  S
O417       Ni433   1.955       .  S
O417        C423   1.290       .  A
O418        C423   1.281       .  A
C419        C736   1.504       .  S
O420      Ni1231   1.912       .  S
O420        C422   1.270   1_655  A
O421       Ni432   1.929       .  S
C422       O1244   1.272       .  A
C422        C803   1.500       .  S
C423        C775   1.497       .  S
H424        O425   0.966       .  S
O425       Ni433   1.930       .  S
O425       Ni427   1.908       .  S
O425       Ni432   1.895       .  S
O426       Ni427   1.996       .  S
Ni427       O431   1.933       .  S
Ni427       O429   1.915       .  S
O428       Ni433   1.936       .  S
O428       C1238   1.272       .  A
C430        O431   1.284       .  A
C430        C747   1.509       .  S
O435       Ni441   1.932       .  S
O435        C456   1.272       .  A
O436       Ni459   1.926       .  S
O436        C445   1.281       .  A
O437       Ni441   1.907       .  S
O437       Ni459   1.916       .  S
O437       Ni453   1.924       .  S
O437        H460   0.966       .  S
C438        O455   1.282       .  A
C438        O447   1.277       .  A
C438        C719   1.466       .  S
O439       Ni458   1.879       .  S
O439        C445   1.264       .  A
O440       Ni458   1.892       .  S
O440        C442   1.265       .  A
Ni441       O444   1.917       .  S
Ni441       O446   1.929       .  S
C442        O452   1.281       .  A
C442        C778   1.502       .  S
O443       Ni459   1.916       .  S
O443        C449   1.275       .  A
O444        C449   1.270       .  A
C445        C694   1.466       .  S
O446        C448   1.279       .  A
O447       Ni458   1.892       .  S
C448        O454   1.284       .  A
C448        C764   1.503       .  S
C449        C708   1.504       .  S
H450        O451   0.962       .  S
O451       Ni459   1.892       .  S
O451       Ni453   1.854       .  S
O451       Ni458   1.853       .  S
O452       Ni453   1.946       .  S
Ni453       O457   1.896       .  S
Ni453       O455   1.916       .  S
O454       Ni459   1.958       .  S
C456        O457   1.267       .  A
C456        C677   1.476       .  S
O461       Ni467   1.963       .  S
O461        C482   1.284       .  A
O462       Ni485   1.984       .  S
O462        C471   1.273       .  A
O463       Ni467   1.870       .  S
O463       Ni485   1.911       .  S
O463       Ni479   1.898       .  S
O463        H486   0.966       .  S
C464        O481   1.277       .  A
C464        O473   1.269       .  A
C464        C722   1.453       .  S
O465       Ni484   1.867       .  S
O465        C471   1.246       .  A
O466       Ni484   1.888       .  S
O466        C468   1.259       .  A
Ni467       O470   1.941       .  S
Ni467       O472   1.914       .  S
C468        O478   1.275       .  A
C468        C806   1.518       .  S
O469       Ni485   1.910       .  S
O469        C475   1.287       .  A
O470        C475   1.288       .  A
C471        C663   1.526       .  S
O472        C474   1.271       .  A
C474        O480   1.279       .  A
C474        C792   1.526       .  S
C475        C705   1.488       .  S
H476        O477   0.967       .  S
O477       Ni485   1.919       .  S
O477       Ni479   1.906       .  S
O477       Ni484   1.895       .  S
O478       Ni479   1.958       .  S
Ni479       O483   1.928       .  S
O480       Ni485   1.940       .  S
C482        O483   1.276       .  A
C482        C652   1.539       .  S
O487       Ni493   1.910       .  S
O487        C508   1.272       .  A
O488       Ni511   1.919       .  S
O488        C497   1.276       .  A
O489       Ni493   1.867       .  S
O489       Ni511   1.872       .  S
O489       Ni505   1.898       .  S
O489        H512   0.964       .  S
C490        O507   1.274       .  A
C490        O499   1.266       .  A
C490        C607   1.495       .  S
O491       Ni510   1.902       .  S
O491        C497   1.268       .  A
O492       Ni510   1.907       .  S
O492        C494   1.276       .  A
Ni493       O496   1.909       .  S
Ni493       O498   1.898       .  S
C494        O504   1.290       .  A
C494        C624   1.520       .  S
O495       Ni511   1.950       .  S
O495        C501   1.291       .  A
O496        C501   1.281       .  A
C497        C691   1.487       .  S
O498        C500   1.267       .  A
O499       Ni510   1.916       .  S
C500        O506   1.281       .  A
C500        C635   1.507       .  S
C501        C593   1.508   1_565  S
H502        O503   0.966       .  S
O503       Ni511   1.949       .  S
O503       Ni505   1.905       .  S
O503       Ni510   1.907       .  S
O504       Ni505   1.973       .  S
Ni505       O509   1.908       .  S
Ni505       O507   1.937       .  S
O506       Ni511   1.961       .  S
C508        O509   1.277       .  A
C508        C680   1.478       .  S
O513       Ni519   1.964       .  S
O513        C534   1.283       .  A
O514       Ni537   1.956       .  S
O514        C523   1.280       .  A
O515       Ni519   1.880       .  S
O515       Ni537   1.891       .  S
O515       Ni531   1.881       .  S
O515        H538   0.965       .  S
C516        O533   1.266       .  A
C516        O525   1.260       .  A
C516        C579   1.466       .  S
O517       Ni536   1.889   1_565  S
O517        C523   1.265       .  A
O518       Ni536   1.924   1_565  S
O518        C520   1.280       .  A
Ni519       O522   1.935       .  S
Ni519       O524   1.907       .  S
C520        O530   1.287       .  A
C520        C638   1.500       .  S
O521       Ni537   1.947       .  S
O521        C527   1.292       .  A
O522        C527   1.287       .  A
C523        C666   1.495       .  S
O524        C526   1.270       .  A
C526        O532   1.276       .  A
C526        C621   1.504       .  S
C527        C568   1.522       .  S
H528        O529   0.966       .  S
O529       Ni537   1.943       .  S
O529       Ni531   1.915       .  S
O529       Ni536   1.906   1_565  S
O530       Ni531   1.974       .  S
Ni531       O535   1.908       .  S
O532       Ni537   1.938       .  S
C534        O535   1.271       .  A
C534        C649   1.510       .  S
O539       Ni545   1.876       .  S
O539        C560   1.248       .  A
O540       Ni563   1.902       .  S
O540        C549   1.272       .  A
O541       Ni545   1.890       .  S
O541       Ni563   1.885       .  S
O541       Ni557   1.939       .  S
O541        H564   0.966       .  S
C542        O559   1.287       .  A
C542        O551   1.289       .  A
C542        C610   1.515       .  S
O543       Ni562   1.973       .  S
O543        C549   1.289       .  A
O544       Ni562   1.922       .  S
O544        C546   1.275       .  A
Ni545      O1364   1.903   1_455  S
Ni545       O550   1.894       .  S
C546        O556   1.279       .  A
C546        C565   1.517       .  S
O547      Ni1379   1.940       .  S
O547        C553   1.285       .  A
O548      Ni1361   1.907       .  S
O548        C553   1.276       .  A
C549        C750   1.532   1_455  S
O550        C552   1.261       .  A
O551       Ni562   1.954       .  S
C552        O558   1.270       .  A
C552        C582   1.490       .  S
C553        C596   1.496       .  S
H554        O555   0.960       .  S
O555       Ni563   1.898       .  S
O555       Ni557   1.896       .  S
O555       Ni562   1.863       .  S
O556       Ni557   1.934       .  S
Ni557       O561   1.967       .  S
Ni557       O559   1.927       .  S
O558       Ni563   1.939       .  S
C560        O561   1.275       .  A
C560        C733   1.511       .  S
Ni563      O1363   1.940   1_455  S
C565        C566   1.424       .  A
C565        C570   1.416       .  A
C566        C567   1.419       .  A
C566        C571   1.452       .  S
C567        C568   1.420       .  A
C567        C574   1.452       .  S
C568        C569   1.427       .  A
C569        C570   1.419       .  A
C569        C572   1.453       .  S
C570        C573   1.452       .  S
C571        N578   1.157       .  T
C572        N577   1.158       .  T
C573       N1391   1.158       .  T
C574        N576   1.158       .  T
N575       C1389   1.158       .  T
C579        C580   1.406       .  A
C579        C584   1.409       .  A
C580        C581   1.408       .  A
C580        C585   1.454       .  S
C581        C582   1.419       .  A
C581        C588   1.448       .  S
C582        C583   1.419       .  A
C583        C584   1.409       .  A
C583        C586   1.451       .  S
C584        C587   1.452       .  S
C585        N592   1.157       .  T
C586        N591   1.157   1_455  T
C588        N590   1.157       .  T
C594        C595   1.411       .  A
C595        C596   1.408       .  A
C595        C602   1.453       .  S
C596        C597   1.419       .  A
C597        C598   1.415       .  A
C597       C1416   1.453       .  S
C598        C601   1.452       .  S
C599        N606   1.157       .  T
C600       C1413   1.453       .  S
C600        N605   1.158       .  T
C602        N604   1.157       .  T
C607        C608   1.413       .  A
C607        C612   1.409       .  A
C608        C609   1.414       .  A
C608        C613   1.453       .  S
C609        C610   1.423       .  A
C609        C616   1.453       .  S
C610        C611   1.426       .  A
C611        C612   1.420       .  A
C611        C614   1.449       .  S
C612        C615   1.449       .  S
C613        N620   1.157       .  T
C614        N619   1.157       .  T
C615        N617   1.157       .  T
C616        N618   1.158       .  T
C621        C622   1.417       .  A
C621        C626   1.414       .  A
C622        C623   1.417       .  A
C622        C627   1.450       .  S
C623        C624   1.423       .  A
C623        C630   1.452       .  S
C624        C625   1.428       .  A
C625        C626   1.417       .  A
C625        C628   1.452       .  S
C626        C629   1.454       .  S
C627        N634   1.156       .  T
C628        N633   1.157       .  T
C629        N631   1.158       .  T
C630        N632   1.157       .  T
C635        C636   1.422       .  A
C635        C640   1.417       .  A
C636        C637   1.407       .  A
C636        C641   1.452       .  S
C637       C1454   1.409       .  A
C637       C1460   1.454   1_565  S
C638       C1453   1.410       .  A
C638       C1455   1.417   1_455  A
C639       C1454   1.416       .  A
C639        C640   1.426       .  A
C639       C1458   1.448       .  S
C640        C643   1.448       .  S
C641        N648   1.156   1_565  T
C642       C1455   1.448   1_455  S
C642        N647   1.157       .  T
C643        N645   1.157       .  T
C644       C1453   1.453   1_545  S
C649        C654   1.411       .  A
C650        C651   1.425       .  A
C650        C655   1.452       .  S
C651        C652   1.428       .  A
C651        C658   1.451       .  S
C653        C654   1.426       .  A
C653        C656   1.450       .  S
C654        C657   1.451       .  S
C655        N662   1.157       .  T
C656        N661   1.157       .  T
C657        N659   1.157       .  T
C658        N660   1.158       .  T
C663        C664   1.420       .  A
C663        C668   1.437       .  A
C664        C665   1.431   1_554  A
C664        C669   1.447       .  S
C665        C672   1.447       .  S
C666        C667   1.400       .  A
C667        C670   1.457       .  S
C668        C671   1.449       .  S
C669        N676   1.157       .  T
C670        N675   1.157       .  T
C672        N674   1.157       .  T
C677        C678   1.407   1_554  A
C677        C682   1.414       .  A
C678        C679   1.410       .  A
C678        C683   1.451       .  S
C679        C680   1.419       .  A
C679        C686   1.452       .  S
C680        C681   1.406   1_556  A
C681        C682   1.409       .  A
C681        C684   1.450       .  S
C682        C685   1.449       .  S
C683        N690   1.157       .  T
C684        N689   1.157       .  T
C685        N687   1.156       .  T
C686        N688   1.157       .  T
C691        C692   1.414       .  A
C691        C696   1.418       .  A
C692        C693   1.409       .  A
C692        C697   1.445       .  S
C693        C694   1.410       .  A
C693        C700   1.454       .  S
C694        C695   1.411       .  A
C695        C696   1.409       .  A
C695        C698   1.452       .  S
C696        C699   1.451       .  S
C697        N704   1.155       .  T
C698        N703   1.157       .  T
C699        N701   1.157       .  T
C700        N702   1.157       .  T
C705        C706   1.408       .  A
C705        C710   1.418       .  A
C706        C707   1.404       .  A
C706        C711   1.458       .  S
C707        C708   1.430       .  A
C707        C714   1.451       .  S
C708        C709   1.416       .  A
C709        C710   1.416       .  A
C709        C712   1.449       .  S
C710        C713   1.451       .  S
C711        N718   1.157       .  T
C712        N717   1.157       .  T
C713        N715   1.157       .  T
C714        N716   1.156       .  T
C719       C1536   1.411       .  A
C719       C1540   1.418       .  A
C720       C1535   1.412   1_455  A
C720        C721   1.394       .  A
C720       C1541   1.457   1_455  S
C721        C722   1.415       .  A
C722        C723   1.403       .  A
C723        C724   1.401       .  A
C723        C726   1.451       .  S
C724       C1535   1.418   1_455  A
C724       C1543   1.453       .  S
C725       C1536   1.456       .  S
C725        N732   1.158       .  T
C726        N731   1.157       .  T
C727       C1540   1.453       .  S
C727        N729   1.157       .  T
C728        N730   1.157       .  T
C733        C734   1.430       .  A
C733        C738   1.413       .  A
C734        C735   1.411       .  A
C734        C739   1.455       .  S
C735       C1552   1.410       .  A
C735        C742   1.453   1_455  S
C736       C1551   1.410       .  A
C736        C737   1.425       .  A
C737       C1554   1.420       .  A
C737        C740   1.451       .  S
C738       C1553   1.420       .  A
C738        C741   1.450       .  S
C739        N746   1.158       .  T
C740        N745   1.157       .  T
C741       N1559   1.157       .  T
C742        N744   1.157       .  T
N743       C1557   1.157       .  T
C747        C748   1.414   1_554  A
C747       C1568   1.417       .  A
C748        C749   1.419       .  A
C748        C753   1.454       .  S
C749       C1566   1.430       .  A
C749        C756   1.450       .  S
C750       C1565   1.431       .  A
C750        C751   1.425   1_655  A
C751        C752   1.424   1_456  A
C751        C754   1.452   1_556  S
C752       C1563   1.416       .  A
C752        C755   1.448       .  S
C753        N760   1.157       .  T
C754        N759   1.158       .  T
C755        N757   1.157   1_655  T
C756        N758   1.157       .  T
C761        C762   1.413       .  A
C761        C766   1.410       .  A
C762        C763   1.418       .  A
C762        C767   1.450       .  S
C763        C764   1.422       .  A
C763        C770   1.450       .  S
C764        C765   1.420       .  A
C765        C766   1.408       .  A
C765        C768   1.451       .  S
C766        C769   1.453       .  S
C767        N774   1.157       .  T
C768        N773   1.158       .  T
C769        N771   1.157       .  T
C770        N772   1.158       .  T
C776        C777   1.410       .  A
C777        C778   1.427       .  A
C777        C784   1.455       .  S
C778        C779   1.411       .  A
C779        C780   1.417       .  A
C779        C782   1.448       .  S
C781       N1604   1.155       .  T
C782        N787   1.157       .  T
C783        N785   1.157       .  T
C784        N786   1.158       .  T
N788       C1597   1.155   1_455  T
C789        C790   1.417       .  A
C789        C794   1.417       .  A
C790        C791   1.430       .  A
C790        C795   1.449       .  S
C791        C792   1.424       .  A
C791        C798   1.449       .  S
C792        C793   1.430       .  A
C793        C794   1.414       .  A
C793        C796   1.455       .  S
C794        C797   1.457       .  S
C795        N802   1.157       .  T
C796        N801   1.158       .  T
C797        N799   1.158       .  T
C798        N800   1.157       .  T
C803        C804   1.412       .  A
C803        C808   1.408       .  A
C804        C805   1.420       .  A
C804        C809   1.446       .  S
C805        C806   1.421       .  A
C805        C812   1.450       .  S
C806        C807   1.430       .  A
C807        C808   1.411       .  A
C807        C810   1.452       .  S
C808        C811   1.454       .  S
C809        N816   1.156       .  T
C810        N815   1.157       .  T
C811        N813   1.158       .  T
C812        N814   1.158       .  T
O817       Ni823   1.933       .  S
O817        C838   1.276       .  A
O818       Ni841   1.916       .  S
O818        C827   1.275       .  A
O819       Ni823   1.879       .  S
O819       Ni841   1.891       .  S
O819       Ni835   1.906       .  S
O819        H842   0.964       .  S
C820        O837   1.270       .  A
C820        O829   1.270       .  A
C820       C1169   1.489       .  S
O821       Ni840   1.928       .  S
O821        C827   1.272       .  A
O822       Ni840   1.905       .  S
O822        C824   1.276       .  A
Ni823       O826   1.926       .  S
C824        O834   1.295       .  A
C824       C1197   1.509       .  S
O825       Ni841   1.953       .  S
O825        C831   1.289       .  A
O826        C831   1.281       .  A
C827       C1144   1.506       .  S
O828        C830   1.270       .  A
O829       Ni840   1.926       .  S
C830       C1211   1.497       .  S
C831       C1183   1.497       .  S
H832        O833   0.966       .  S
O833       Ni841   1.928       .  S
O833       Ni835   1.911       .  S
O833       Ni840   1.899       .  S
O834       Ni835   1.998       .  S
Ni835       O839   1.938       .  S
Ni835       O837   1.916       .  S
O836       Ni841   1.935   1_455  S
C838        O839   1.285       .  A
C838       C1155   1.512       .  S
O843       Ni849   1.925       .  S
O843        C864   1.271       .  A
O844       Ni867   1.920       .  S
O844        C853   1.280       .  A
O845       Ni849   1.905       .  S
O845       Ni867   1.914       .  S
O845       Ni861   1.928       .  S
O845        H868   0.966       .  S
C846        O863   1.284       .  A
C846        O855   1.277       .  A
C846       C1127   1.463       .  S
O847       Ni866   1.881       .  S
O847        C853   1.265       .  A
O848       Ni866   1.893       .  S
O848        C850   1.265       .  A
Ni849       O852   1.914       .  S
Ni849       O854   1.929       .  S
C850        O860   1.281       .  A
C850       C1186   1.502       .  S
O851       Ni867   1.916       .  S
O851        C857   1.274       .  A
O852        C857   1.269       .  A
C853       C1102   1.463       .  S
O854        C856   1.281       .  A
O855       Ni866   1.894       .  S
C856        O862   1.286       .  A
C856       C1172   1.503       .  S
C857       C1116   1.501       .  S
H858        O859   0.964       .  S
O859       Ni867   1.889       .  S
O859       Ni861   1.846       .  S
O859       Ni866   1.850       .  S
O860       Ni861   1.948       .  S
Ni861       O865   1.897       .  S
Ni861       O863   1.915       .  S
O862       Ni867   1.960       .  S
C864        O865   1.268       .  A
C864       C1085   1.474       .  S
O869       Ni875   1.962       .  S
O869        C890   1.283       .  A
O870       Ni893   1.994       .  S
O870        C879   1.276       .  A
O871       Ni875   1.868       .  S
O871       Ni893   1.913       .  S
O871       Ni887   1.896       .  S
O871        H894   0.966       .  S
C872        O889   1.281       .  A
C872        O881   1.268       .  A
C872       C1130   1.459       .  S
O873       Ni892   1.873       .  S
O873        C879   1.246       .  A
O874       Ni892   1.885       .  S
O874        C876   1.258       .  A
Ni875       O878   1.939       .  S
Ni875       O880   1.912       .  S
C876        O886   1.274       .  A
C876       C1214   1.515       .  S
O877       Ni893   1.914       .  S
O877        C883   1.288       .  A
O878        C883   1.288       .  A
C879       C1071   1.532       .  S
O880        C882   1.270       .  A
O881      Ni1300   1.880       .  S
C882        O888   1.281       .  A
C882       C1200   1.522       .  S
C883       C1113   1.485       .  S
H884        O885   0.966       .  S
O885       Ni893   1.920       .  S
O885       Ni887   1.905       .  S
O885       Ni892   1.892       .  S
O886       Ni887   1.957       .  S
Ni887       O891   1.925       .  S
Ni887      O1297   1.913   1_545  S
O888       Ni893   1.942       .  S
O889      Ni1295   1.920       .  S
C890        O891   1.275       .  A
C890       C1060   1.537       .  S
Ni892      O1289   1.883   1_545  S
O895       Ni901   1.910       .  S
O895        C916   1.273       .  A
O896       Ni919   1.918       .  S
O896        C905   1.275       .  A
O897       Ni901   1.864       .  S
O897       Ni919   1.869       .  S
O897       Ni913   1.894       .  S
O897        H920   0.964       .  S
C898        O915   1.275       .  A
C898        O907   1.266       .  A
C898       C1015   1.496       .  S
O899       Ni918   1.903       .  S
O899        C905   1.268       .  A
O900       Ni918   1.909       .  S
O900        C902   1.277       .  A
Ni901       O904   1.907       .  S
Ni901       O906   1.900       .  S
C902        O912   1.290       .  A
C902       C1032   1.520       .  S
O903       Ni919   1.946       .  S
O903        C909   1.290       .  A
O904        C909   1.280       .  A
C905       C1099   1.486       .  S
O906        C908   1.267       .  A
O907       Ni918   1.919       .  S
C908        O914   1.284       .  A
C908       C1043   1.514       .  S
C909       C1001   1.505       .  S
H910        O911   0.966       .  S
O911       Ni919   1.953       .  S
O911       Ni913   1.909       .  S
O911       Ni918   1.911       .  S
O912       Ni913   1.974       .  S
Ni913       O917   1.908       .  S
Ni913       O915   1.938       .  S
O914       Ni919   1.971       .  S
C916        O917   1.278       .  A
C916       C1088   1.476       .  S
O921       Ni927   1.969       .  S
O921        C942   1.285       .  A
O922       Ni945   1.950       .  S
O922        C931   1.279       .  A
O923       Ni927   1.880       .  S
O923       Ni945   1.890       .  S
O923       Ni939   1.884       .  S
O923        H946   0.965       .  S
C924        O941   1.272       .  A
C924        O933   1.271       .  A
C924        C987   1.465       .  S
O925       Ni944   1.893       .  S
O925        C931   1.266       .  A
O926       Ni944   1.926       .  S
O926        C928   1.281       .  A
Ni927       O930   1.938       .  S
Ni927       O932   1.911       .  S
C928        O938   1.289       .  A
C928       C1046   1.504       .  S
O929       Ni945   1.949       .  S
O929        C935   1.291       .  A
O930        C935   1.288       .  A
C931       C1074   1.493       .  S
O932        C934   1.270       .  A
O933      Ni1352   1.905       .  S
C934        O940   1.276       .  A
C934       C1029   1.505       .  S
C935        C976   1.524       .  S
H936        O937   0.966       .  S
O937       Ni945   1.942       .  S
O937       Ni939   1.914       .  S
O937       Ni944   1.905       .  S
O938       Ni939   1.980       .  S
Ni939       O943   1.911       .  S
Ni939      O1349   1.913       .  S
O940       Ni945   1.938       .  S
O941      Ni1347   1.904   1_545  S
C942        O943   1.274       .  A
C942       C1057   1.516       .  S
Ni944      O1341   1.899       .  S
O947       Ni953   1.870       .  S
O947        C968   1.244       .  A
O948       Ni971   1.906       .  S
O948        C957   1.273       .  A
O949       Ni953   1.889       .  S
O949       Ni971   1.884       .  S
O949       Ni965   1.939       .  S
O949        H972   0.966       .  S
C950        O967   1.289       .  A
C950        O959   1.289       .  A
C950       C1018   1.510       .  S
O951       Ni970   1.966       .  S
O951        C957   1.287       .  A
O952       Ni970   1.916       .  S
O952        C954   1.273       .  A
Ni953       O958   1.881       .  S
C954        O964   1.279       .  A
C954        C973   1.513       .  S
O955        C961   1.285       .  A
O956        C961   1.276       .  A
C957       C1158   1.530       .  S
O958        C960   1.259       .  A
O959       Ni970   1.950       .  S
C960        O966   1.268       .  A
C960        C990   1.480       .  S
C961       C1004   1.494       .  S
H962        O963   0.961       .  S
O963       Ni971   1.906       .  S
O963       Ni965   1.897       .  S
O963       Ni970   1.865       .  S
O964       Ni965   1.929       .  S
Ni965       O969   1.975       .  S
Ni965       O967   1.933       .  S
O966       Ni971   1.934       .  S
C968        O969   1.275       .  A
C968       C1141   1.516       .  S
C973        C974   1.423       .  A
C973        C978   1.413       .  A
C974        C975   1.420       .  A
C974        C979   1.452       .  S
C975        C976   1.423       .  A
C975        C982   1.452       .  S
C976        C977   1.428       .  A
C977        C978   1.417       .  A
C977        C980   1.451       .  S
C978        C981   1.453       .  S
C979        N986   1.158       .  T
C980        N985   1.157       .  T
C982        N984   1.158       .  T
C987        C988   1.407       .  A
C987        C992   1.411       .  A
C988        C989   1.408       .  A
C988        C993   1.452       .  S
C989        C990   1.418       .  A
C989        C996   1.449       .  S
C990        C991   1.414       .  A
C991        C992   1.403       .  A
C991        C994   1.452       .  S
C992        C995   1.452       .  S
C993       N1000   1.157       .  T
C994        N999   1.157       .  T
C995       N1405   1.157   1_545  T
C996        N998   1.157       .  T
N997       C1403   1.157       .  T
C1001      C1410   1.426       .  A
C1001      C1414   1.418       .  A
C1002      C1409   1.428       .  A
C1002      C1003   1.411       .  A
C1002      C1415   1.452       .  S
C1003      C1004   1.407       .  A
C1003      C1010   1.453       .  S
C1004      C1005   1.419       .  A
C1005      C1006   1.415       .  A
C1006      C1409   1.419       .  A
C1006      C1009   1.452   1_545  S
C1007      C1410   1.453       .  S
C1007      N1014   1.158       .  T
C1008      N1013   1.158       .  T
C1009      N1419   1.158       .  T
C1010      N1012   1.157       .  T
N1011      C1417   1.158       .  T
C1015      C1016   1.414       .  A
C1015      C1020   1.411       .  A
C1016      C1017   1.414       .  A
C1016      C1021   1.452       .  S
C1017      C1018   1.419       .  A
C1017      C1024   1.452       .  S
C1018      C1019   1.422       .  A
C1019      C1020   1.421       .  A
C1019      C1022   1.449       .  S
C1020      C1023   1.448       .  S
C1021      N1028   1.157       .  T
C1022      N1027   1.157       .  T
C1023      N1025   1.157       .  T
C1024      N1026   1.158       .  T
C1029      C1030   1.418       .  A
C1029      C1034   1.415       .  A
C1030      C1031   1.417       .  A
C1030      C1035   1.450       .  S
C1031      C1032   1.421       .  A
C1031      C1038   1.451       .  S
C1032      C1033   1.426       .  A
C1033      C1034   1.418       .  A
C1033      C1036   1.452       .  S
C1034      C1037   1.453       .  S
C1035      N1042   1.156       .  T
C1036      N1041   1.157       .  T
C1037      N1039   1.157       .  T
C1038      N1040   1.157       .  T
C1043      C1044   1.423       .  A
C1043      C1048   1.418       .  A
C1044      C1045   1.411   1_655  A
C1044      C1049   1.453       .  S
C1047      C1048   1.429       .  A
C1048      C1051   1.447       .  S
C1049      N1056   1.157       .  T
C1050      N1055   1.157       .  T
C1051      N1053   1.157       .  T
C1052      N1462   1.157       .  T
N1054      C1460   1.157       .  T
C1057      C1466   1.414       .  A
C1057      C1062   1.412       .  A
C1058      C1465   1.412       .  A
C1058      C1059   1.423   1_565  A
C1058      C1063   1.452   1_565  S
C1059      C1060   1.429       .  A
C1059      C1066   1.450       .  S
C1060      C1469   1.432   1_545  A
C1061      C1468   1.433       .  A
C1061      C1062   1.428       .  A
C1061      C1064   1.450       .  S
C1062      C1065   1.451       .  S
C1063      N1070   1.157       .  T
C1064      N1069   1.157       .  T
C1065      N1067   1.157       .  T
C1066      N1068   1.158       .  T
C1071      C1072   1.423       .  A
C1071      C1076   1.434       .  A
C1072      C1073   1.438   1_554  A
C1072      C1077   1.448       .  S
C1073      C1482   1.422   1_545  A
C1073      C1080   1.447       .  S
C1074      C1481   1.420       .  A
C1074      C1075   1.397       .  A
C1075      C1484   1.407   1_556  A
C1075      C1078   1.456       .  S
C1076      C1483   1.403   1_544  A
C1076      C1079   1.450       .  S
C1077      N1084   1.158       .  T
C1078      N1083   1.157       .  T
C1079      N1489   1.157       .  T
C1080      N1082   1.157       .  T
N1081      C1487   1.157       .  T
C1085      C1086   1.406   1_554  A
C1085      C1090   1.414       .  A
C1086      C1087   1.408       .  A
C1086      C1091   1.451       .  S
C1087      C1088   1.418       .  A
C1087      C1094   1.452       .  S
C1088      C1089   1.407   1_556  A
C1089      C1090   1.409       .  A
C1089      C1092   1.450       .  S
C1090      C1093   1.449       .  S
C1091      N1098   1.157       .  T
C1092      N1097   1.157       .  T
C1093      N1095   1.156       .  T
C1094      N1096   1.157       .  T
C1099      C1100   1.414       .  A
C1099      C1104   1.417       .  A
C1100      C1101   1.407       .  A
C1100      C1105   1.445       .  S
C1101      C1102   1.409       .  A
C1101      C1108   1.454       .  S
C1102      C1103   1.411       .  A
C1103      C1104   1.409       .  A
C1103      C1106   1.453       .  S
C1104      C1107   1.452       .  S
C1105      N1112   1.155       .  T
C1106      N1111   1.157       .  T
C1107      N1109   1.157       .  T
C1108      N1110   1.157       .  T
C1113      C1114   1.406       .  A
C1113      C1118   1.417       .  A
C1114      C1115   1.403       .  A
C1114      C1119   1.457       .  S
C1115      C1116   1.430       .  A
C1115      C1122   1.451       .  S
C1116      C1117   1.415       .  A
C1117      C1118   1.416       .  A
C1117      C1120   1.449       .  S
C1118      C1121   1.451       .  S
C1119      N1126   1.157       .  T
C1120      N1125   1.157       .  T
C1121      N1123   1.157       .  T
C1122      N1124   1.156       .  T
C1128      C1129   1.395       .  A
C1129      C1130   1.417       .  A
C1129      C1544   1.455       .  S
C1130      C1131   1.403       .  A
C1131      C1132   1.404       .  A
C1131      C1134   1.451       .  S
C1133      N1140   1.158       .  T
C1134      N1139   1.157       .  T
C1135      N1137   1.157       .  T
C1136      C1537   1.455       .  S
C1136      N1138   1.157   1_565  T
C1141      C1142   1.434       .  A
C1141      C1146   1.413       .  A
C1142      C1143   1.413       .  A
C1142      C1147   1.455       .  S
C1143      C1150   1.454       .  S
C1144      C1145   1.427   1_655  A
C1145      C1148   1.451       .  S
C1146      C1149   1.449       .  S
C1147      N1154   1.158       .  T
C1148      N1153   1.157       .  T
C1150      N1152   1.157       .  T
C1155      C1156   1.413   1_554  A
C1156      C1157   1.421       .  A
C1156      C1161   1.453       .  S
C1157      C1164   1.450       .  S
C1158      C1159   1.426       .  A
C1159      C1160   1.423   1_556  A
C1159      C1162   1.452       .  S
C1160      C1163   1.448       .  S
C1161      N1168   1.157       .  T
C1162      N1167   1.158   1_556  T
C1163      N1165   1.157       .  T
C1164      N1166   1.157       .  T
C1169      C1170   1.412       .  A
C1169      C1174   1.412       .  A
C1170      C1171   1.417       .  A
C1170      C1175   1.449       .  S
C1171      C1172   1.421       .  A
C1171      C1178   1.450       .  S
C1172      C1173   1.419       .  A
C1173      C1174   1.407       .  A
C1173      C1176   1.452       .  S
C1174      C1177   1.454       .  S
C1175      N1182   1.157       .  T
C1176      N1181   1.158       .  T
C1177      N1179   1.157       .  T
C1178      N1180   1.158       .  T
C1183      C1592   1.409   1_545  A
C1183      C1596   1.418   1_545  A
C1184      C1591   1.408       .  A
C1184      C1185   1.409       .  A
C1184      C1597   1.448       .  S
C1185      C1186   1.426       .  A
C1185      C1192   1.454       .  S
C1186      C1187   1.412       .  A
C1187      C1188   1.418       .  A
C1187      C1190   1.448       .  S
C1188      C1591   1.417       .  A
C1188      C1599   1.449       .  S
C1189      C1592   1.448   1_545  S
C1190      N1195   1.157       .  T
C1191      C1596   1.449       .  S
C1191      N1193   1.157       .  T
C1192      N1194   1.157       .  T
C1197      C1198   1.416       .  A
C1197      C1202   1.414       .  A
C1198      C1199   1.429       .  A
C1198      C1203   1.447       .  S
C1199      C1200   1.422       .  A
C1199      C1206   1.448       .  S
C1200      C1201   1.429       .  A
C1201      C1202   1.412       .  A
C1201      C1204   1.454       .  S
C1202      C1205   1.457       .  S
C1203      N1210   1.157       .  T
C1204      N1209   1.158       .  T
C1205      N1207   1.158       .  T
C1206      N1208   1.157       .  T
C1211      C1212   1.411       .  A
C1211      C1216   1.405       .  A
C1212      C1213   1.418       .  A
C1212      C1217   1.444       .  S
C1213      C1214   1.420       .  A
C1213      C1220   1.450       .  S
C1214      C1215   1.431       .  A
C1215      C1216   1.411       .  A
C1215      C1218   1.452       .  S
C1216      C1219   1.453       .  S
C1217      N1224   1.155       .  T
C1218      N1223   1.157       .  T
C1219      N1221   1.157       .  T
C1220      N1222   1.158       .  T
O1225     Ni1231   1.929       .  S
O1225      C1246   1.275       .  A
O1226     Ni1249   1.912       .  S
O1226      C1235   1.274       .  A
O1227     Ni1231   1.875       .  S
O1227     Ni1249   1.884       .  S
O1227     Ni1243   1.902       .  S
O1227      H1250   0.964       .  S
C1228      O1245   1.269       .  A
C1228      O1237   1.272       .  A
C1228      C1577   1.489       .  S
O1229     Ni1248   1.932       .  S
O1229      C1235   1.274       .  A
O1230     Ni1248   1.911       .  S
O1230      C1232   1.277       .  A
Ni1231     O1234   1.920       .  S
C1232      O1242   1.295       .  A
C1232      C1605   1.515       .  S
O1233     Ni1249   1.955       .  S
O1233      C1239   1.291       .  A
O1234      C1239   1.280       .  A
C1235      C1552   1.504   1_655  S
O1236      C1238   1.269       .  A
O1237     Ni1248   1.930       .  S
C1238      C1619   1.498       .  S
C1239      C1591   1.493       .  S
H1240      O1241   0.966       .  S
O1241     Ni1249   1.928       .  S
O1241     Ni1243   1.907       .  S
O1241     Ni1248   1.896       .  S
O1242     Ni1243   1.997       .  S
Ni1243     O1247   1.931       .  S
Ni1243     O1245   1.912       .  S
O1244     Ni1249   1.937   1_455  S
C1246      O1247   1.284       .  A
C1246      C1563   1.507       .  S
O1251     Ni1257   1.931       .  S
O1251      C1272   1.271       .  A
O1252     Ni1275   1.927       .  S
O1252      C1261   1.281       .  A
O1253     Ni1257   1.907       .  S
O1253     Ni1275   1.916       .  S
O1253     Ni1269   1.921       .  S
O1253      H1276   0.966       .  S
C1254      O1271   1.281       .  A
C1254      O1263   1.277       .  A
C1254      C1535   1.462       .  S
O1255     Ni1274   1.878       .  S
O1255      C1261   1.263       .  A
O1256     Ni1274   1.893       .  S
O1256      C1258   1.265       .  A
Ni1257     O1260   1.916       .  S
Ni1257     O1262   1.928       .  S
C1258      O1268   1.281       .  A
C1258      C1594   1.505       .  S
O1259     Ni1275   1.911       .  S
O1259      C1265   1.274       .  A
O1260      C1265   1.270       .  A
C1261      C1510   1.465       .  S
O1262      C1264   1.279       .  A
O1263     Ni1274   1.890       .  S
C1264      O1270   1.285       .  A
C1264      C1580   1.504       .  S
C1265      C1524   1.499       .  S
H1266      O1267   0.962       .  S
O1267     Ni1275   1.888       .  S
O1267     Ni1269   1.852       .  S
O1267     Ni1274   1.853       .  S
O1268     Ni1269   1.946       .  S
Ni1269     O1273   1.895       .  S
Ni1269     O1271   1.909       .  S
O1270     Ni1275   1.962       .  S
C1272      O1273   1.267       .  A
C1272      C1493   1.475       .  S
O1277     Ni1283   1.969       .  S
O1277      C1298   1.286       .  A
O1278     Ni1301   1.987       .  S
O1278      C1287   1.275       .  A
O1279     Ni1283   1.871       .  S
O1279     Ni1301   1.911       .  S
O1279     Ni1295   1.899       .  S
O1279      H1302   0.966       .  S
C1280      O1297   1.279       .  A
C1280      O1289   1.270       .  A
C1280      C1538   1.457       .  S
O1281     Ni1300   1.869       .  S
O1281      C1287   1.246       .  A
O1282     Ni1300   1.890       .  S
O1282      C1284   1.260       .  A
Ni1283     O1286   1.943       .  S
Ni1283     O1288   1.916       .  S
C1284      O1294   1.275       .  A
C1284      C1622   1.517       .  S
O1285     Ni1301   1.908       .  S
O1285      C1291   1.286       .  A
O1286      C1291   1.289       .  A
C1287      C1479   1.528       .  S
O1288      C1290   1.272       .  A
C1290      O1296   1.281       .  A
C1290      C1608   1.526       .  S
C1291      C1521   1.485       .  S
H1292      O1293   0.967       .  S
O1293     Ni1301   1.920       .  S
O1293     Ni1295   1.906       .  S
O1293     Ni1300   1.896       .  S
O1294     Ni1295   1.956       .  S
Ni1295     O1299   1.927       .  S
O1296     Ni1301   1.943       .  S
C1298      O1299   1.276       .  A
C1298      C1468   1.543       .  S
O1303     Ni1309   1.909       .  S
O1303      C1324   1.272       .  A
O1304     Ni1327   1.922       .  S
O1304      C1313   1.277       .  A
O1305     Ni1309   1.866       .  S
O1305     Ni1327   1.871       .  S
O1305     Ni1321   1.900       .  S
O1305      H1328   0.964       .  S
C1306      O1323   1.276       .  A
C1306      O1315   1.266       .  A
C1306      C1423   1.499       .  S
O1307     Ni1326   1.900       .  S
O1307      C1313   1.267       .  A
O1308     Ni1326   1.904       .  S
O1308      C1310   1.275       .  A
Ni1309     O1312   1.909       .  S
Ni1309     O1314   1.901       .  S
C1310      O1320   1.290       .  A
C1310      C1440   1.520       .  S
O1311     Ni1327   1.952       .  S
O1311      C1317   1.291       .  A
O1312      C1317   1.280       .  A
C1313      C1507   1.486       .  S
O1314      C1316   1.268       .  A
O1315     Ni1326   1.916       .  S
C1316      O1322   1.283       .  A
C1316      C1451   1.511       .  S
C1317      C1409   1.511   1_565  S
H1318      O1319   0.966       .  S
O1319     Ni1327   1.950       .  S
O1319     Ni1321   1.907       .  S
O1319     Ni1326   1.908       .  S
O1320     Ni1321   1.974       .  S
Ni1321     O1325   1.912       .  S
Ni1321     O1323   1.941       .  S
O1322     Ni1327   1.966       .  S
C1324      O1325   1.279       .  A
C1324      C1496   1.479       .  S
O1329     Ni1335   1.965       .  S
O1329      C1350   1.283       .  A
O1330     Ni1353   1.964       .  S
O1330      C1339   1.273       .  A
O1331     Ni1335   1.878       .  S
O1331     Ni1353   1.900       .  S
O1331     Ni1347   1.891       .  S
O1331      H1354   0.965       .  S
C1332      O1349   1.265       .  A
C1332      O1341   1.261       .  A
C1332      C1395   1.465       .  S
O1333     Ni1352   1.890   1_565  S
O1333      C1339   1.261       .  A
O1334     Ni1352   1.905   1_565  S
O1334      C1336   1.267       .  A
Ni1335     O1338   1.928       .  S
Ni1335     O1340   1.908       .  S
C1336      O1346   1.277       .  A
C1336      C1454   1.494       .  S
O1337     Ni1353   1.951       .  S
O1337      C1343   1.294       .  A
O1338      C1343   1.286       .  A
C1339      C1482   1.510       .  S
O1340      C1342   1.269       .  A
C1342      O1348   1.274       .  A
C1342      C1437   1.499       .  S
C1343      C1384   1.524       .  S
H1344      O1345   0.966       .  S
O1345     Ni1353   1.921       .  S
O1345     Ni1347   1.910       .  S
O1345     Ni1352   1.901   1_565  S
O1346     Ni1347   1.958       .  S
Ni1347     O1351   1.914       .  S
O1348     Ni1353   1.933       .  S
C1350      O1351   1.271       .  A
C1350      C1465   1.511       .  S
O1355     Ni1361   1.878       .  S
O1355      C1376   1.249       .  A
O1356     Ni1379   1.901       .  S
O1356      C1365   1.273       .  A
O1357     Ni1361   1.891       .  S
O1357     Ni1379   1.883       .  S
O1357     Ni1373   1.942       .  S
O1357      H1380   0.966       .  S
C1358      O1375   1.288       .  A
C1358      O1367   1.290       .  A
C1358      C1426   1.520       .  S
O1359     Ni1378   1.972       .  S
O1359      C1365   1.288       .  A
O1360     Ni1378   1.918       .  S
O1360      C1362   1.273       .  A
Ni1361     O1366   1.891       .  S
C1362      O1372   1.278       .  A
C1362      C1381   1.513       .  S
O1363      C1369   1.285       .  A
O1364      C1369   1.275       .  A
C1365      C1566   1.533       .  S
O1366      C1368   1.260       .  A
O1367     Ni1378   1.954       .  S
C1368      O1374   1.271       .  A
C1368      C1398   1.483       .  S
C1369      C1412   1.494       .  S
H1370      O1371   0.963       .  S
O1371     Ni1379   1.899       .  S
O1371     Ni1373   1.897       .  S
O1371     Ni1378   1.864       .  S
O1372     Ni1373   1.932       .  S
Ni1373     O1377   1.967       .  S
Ni1373     O1375   1.931       .  S
O1374     Ni1379   1.939       .  S
C1376      O1377   1.276       .  A
C1376      C1549   1.508       .  S
C1381      C1382   1.423       .  A
C1381      C1386   1.413       .  A
C1382      C1383   1.419       .  A
C1382      C1387   1.452       .  S
C1383      C1384   1.422       .  A
C1383      C1390   1.452       .  S
C1384      C1385   1.431       .  A
C1385      C1386   1.417       .  A
C1385      C1388   1.453       .  S
C1386      C1389   1.453       .  S
C1387      N1394   1.157       .  T
C1388      N1393   1.158       .  T
C1390      N1392   1.158       .  T
C1395      C1396   1.405       .  A
C1395      C1400   1.410       .  A
C1396      C1397   1.408       .  A
C1396      C1401   1.451       .  S
C1397      C1398   1.417       .  A
C1397      C1404   1.448       .  S
C1398      C1399   1.414       .  A
C1399      C1400   1.407       .  A
C1399      C1402   1.450       .  S
C1400      C1403   1.451       .  S
C1401      N1408   1.157       .  T
C1402      N1407   1.156       .  T
C1404      N1406   1.156       .  T
C1410      C1411   1.409       .  A
C1411      C1412   1.409       .  A
C1411      C1418   1.453       .  S
C1412      C1413   1.421       .  A
C1413      C1414   1.413       .  A
C1414      C1417   1.452       .  S
C1415      N1422   1.158       .  T
C1416      N1421   1.158       .  T
C1418      N1420   1.157       .  T
C1423      C1424   1.415       .  A
C1423      C1428   1.409       .  A
C1424      C1425   1.415       .  A
C1424      C1429   1.454       .  S
C1425      C1426   1.424       .  A
C1425      C1432   1.452       .  S
C1426      C1427   1.428       .  A
C1427      C1428   1.421       .  A
C1427      C1430   1.450       .  S
C1428      C1431   1.449       .  S
C1429      N1436   1.157       .  T
C1430      N1435   1.157       .  T
C1431      N1433   1.157       .  T
C1432      N1434   1.158       .  T
C1437      C1438   1.417       .  A
C1437      C1442   1.412       .  A
C1438      C1439   1.416       .  A
C1438      C1443   1.449       .  S
C1439      C1440   1.422       .  A
C1439      C1446   1.453       .  S
C1440      C1441   1.429       .  A
C1441      C1442   1.415       .  A
C1441      C1444   1.450       .  S
C1442      C1445   1.455       .  S
C1443      N1450   1.156       .  T
C1444      N1449   1.157       .  T
C1445      N1447   1.158       .  T
C1446      N1448   1.157       .  T
C1451      C1452   1.422       .  A
C1451      C1456   1.417       .  A
C1452      C1453   1.410   1_655  A
C1452      C1457   1.452       .  S
C1455      C1456   1.427       .  A
C1456      C1459   1.448       .  S
C1457      N1464   1.156   1_565  T
C1458      N1463   1.157       .  T
C1459      N1461   1.157       .  T
C1465      C1470   1.413       .  A
C1466      C1467   1.426       .  A
C1466      C1471   1.452       .  S
C1467      C1468   1.429       .  A
C1467      C1474   1.450       .  S
C1469      C1470   1.427       .  A
C1469      C1472   1.451       .  S
C1470      C1473   1.451       .  S
C1471      N1478   1.157       .  T
C1472      N1477   1.158       .  T
C1473      N1475   1.157       .  T
C1474      N1476   1.158       .  T
C1479      C1480   1.420       .  A
C1479      C1484   1.436       .  A
C1480      C1481   1.432   1_554  A
C1480      C1485   1.448       .  S
C1481      C1488   1.447       .  S
C1482      C1483   1.404       .  A
C1483      C1486   1.458       .  S
C1484      C1487   1.448       .  S
C1485      N1492   1.158       .  T
C1486      N1491   1.157       .  T
C1488      N1490   1.157       .  T
C1493      C1494   1.406   1_554  A
C1493      C1498   1.414       .  A
C1494      C1495   1.409       .  A
C1494      C1499   1.451       .  S
C1495      C1496   1.420       .  A
C1495      C1502   1.451       .  S
C1496      C1497   1.407   1_556  A
C1497      C1498   1.409       .  A
C1497      C1500   1.450       .  S
C1498      C1501   1.449       .  S
C1499      N1506   1.157       .  T
C1500      N1505   1.157       .  T
C1501      N1503   1.156       .  T
C1502      N1504   1.157       .  T
C1507      C1508   1.414       .  A
C1507      C1512   1.418       .  A
C1508      C1509   1.410       .  A
C1508      C1513   1.447       .  S
C1509      C1510   1.410       .  A
C1509      C1516   1.453       .  S
C1510      C1511   1.410       .  A
C1511      C1512   1.408       .  A
C1511      C1514   1.453       .  S
C1512      C1515   1.451       .  S
C1513      N1520   1.155       .  T
C1514      N1519   1.157       .  T
C1515      N1517   1.157       .  T
C1516      N1518   1.157       .  T
C1521      C1522   1.408       .  A
C1521      C1526   1.417       .  A
C1522      C1523   1.402       .  A
C1522      C1527   1.458       .  S
C1523      C1524   1.428       .  A
C1523      C1530   1.451       .  S
C1524      C1525   1.415       .  A
C1525      C1526   1.415       .  A
C1525      C1528   1.450       .  S
C1526      C1529   1.451       .  S
C1527      N1534   1.157       .  T
C1528      N1533   1.157       .  T
C1529      N1531   1.157       .  T
C1530      N1532   1.156       .  T
C1536      C1537   1.395       .  A
C1537      C1538   1.415       .  A
C1538      C1539   1.404       .  A
C1539      C1540   1.403       .  A
C1539      C1542   1.451       .  S
C1541      N1548   1.158       .  T
C1542      N1547   1.157       .  T
C1543      N1545   1.157       .  T
C1544      N1546   1.157       .  T
C1549      C1550   1.428       .  A
C1549      C1554   1.412       .  A
C1550      C1551   1.410       .  A
C1550      C1555   1.455       .  S
C1551      C1558   1.452       .  S
C1552      C1553   1.425       .  A
C1553      C1556   1.451       .  S
C1554      C1557   1.449       .  S
C1555      N1562   1.158       .  T
C1556      N1561   1.157       .  T
C1558      N1560   1.157       .  T
C1563      C1564   1.412   1_554  A
C1564      C1565   1.419       .  A
C1564      C1569   1.454       .  S
C1565      C1572   1.451       .  S
C1566      C1567   1.426       .  A
C1567      C1568   1.424   1_556  A
C1567      C1570   1.452       .  S
C1568      C1571   1.447       .  S
C1569      N1576   1.157       .  T
C1570      N1575   1.158       .  T
C1571      N1573   1.157       .  T
C1572      N1574   1.157       .  T
C1577      C1578   1.412       .  A
C1577      C1582   1.409       .  A
C1578      C1579   1.417       .  A
C1578      C1583   1.450       .  S
C1579      C1580   1.422       .  A
C1579      C1586   1.450       .  S
C1580      C1581   1.420       .  A
C1581      C1582   1.408       .  A
C1581      C1584   1.451       .  S
C1582      C1585   1.453       .  S
C1583      N1590   1.157       .  T
C1584      N1589   1.158       .  T
C1585      N1587   1.157       .  T
C1586      N1588   1.158       .  T
C1592      C1593   1.411       .  A
C1593      C1594   1.427       .  A
C1593      C1600   1.455       .  S
C1594      C1595   1.412       .  A
C1595      C1596   1.418       .  A
C1595      C1598   1.448       .  S
C1598      N1603   1.157       .  T
C1599      N1601   1.157       .  T
C1600      N1602   1.158       .  T
C1605      C1606   1.417       .  A
C1605      C1610   1.417       .  A
C1606      C1607   1.430       .  A
C1606      C1611   1.448       .  S
C1607      C1608   1.423       .  A
C1607      C1614   1.449       .  S
C1608      C1609   1.429       .  A
C1609      C1610   1.415       .  A
C1609      C1612   1.454       .  S
C1610      C1613   1.456       .  S
C1611      N1618   1.157       .  T
C1612      N1617   1.158       .  T
C1613      N1615   1.158       .  T
C1614      N1616   1.157       .  T
C1619      C1620   1.411       .  A
C1619      C1624   1.407       .  A
C1620      C1621   1.419       .  A
C1620      C1625   1.446       .  S
C1621      C1622   1.422       .  A
C1621      C1628   1.450       .  S
C1622      C1623   1.431       .  A
C1623      C1624   1.411       .  A
C1623      C1626   1.452       .  S
C1624      C1627   1.454       .  S
C1625      N1632   1.156       .  T
C1626      N1631   1.157       .  T
C1627      N1629   1.158       .  T
C1628      N1630   1.158       .  T
