geometry optimzed in LAMMPS
_audit_creation_date              2020-11-30 
_audit_creation_method            'lammps2cif' 
_symmetry_space_group_name_H-M    'P1' 
_symmetry_Int_Tables_number       1 
_symmetry_cell_setting            triclinic 
loop_ 
_symmetry_equiv_pos_as_xyz 
  x,y,z 
_cell_length_a                    49.04091019 
_cell_length_b                    48.93838570222536 
_cell_length_c                    26.052253047031034 
_cell_angle_alpha                 90.49335542880472 
_cell_angle_beta                  89.77675532407817 
_cell_angle_gamma                 89.38018162231253 
loop_ 
_atom_site_label 
_atom_site_type_symbol 
_atom_site_fract_x 
_atom_site_fract_y 
_atom_site_fract_z 
_atom_site_charge 
O1          O  0.40944070  0.91618365  0.96025169    -0.74400
O2          O  0.40277301  0.83818045  0.97217451    -0.74500
O3          O  0.40600428  0.87406329  0.89192787    -0.74500
O4          O  0.40571670  0.88056227  0.03922747    -0.74600
O5          O  0.36038189  0.88409303  0.03824088    -0.74500
O6          O  0.36078002  0.87896257  0.89202122    -0.74500
O7          O  0.35751591  0.84238195  0.96978894    -0.74400
O8          O  0.36420136  0.92075552  0.96149148    -0.74500
Ni9        Ni  0.40760128  0.87707055  0.96574491     1.25400
Ni10       Ni  0.35914310  0.88170458  0.96520846     1.25400
C11         C  0.38801034  0.93143478  0.96017377     0.87800
C12         C  0.37906149  0.82739490  0.97383586     0.87700
C13         C  0.38331914  0.87576829  0.86764093     0.87700
C14         C  0.38284647  0.88307877  0.06298735     0.87900
O15         O  0.42624984  0.91725694  0.46233572    -0.74400
O16         O  0.42381747  0.83864818  0.46724774    -0.74500
O17         O  0.42536844  0.87700359  0.39122506    -0.74500
O18         O  0.42515684  0.87933598  0.53775841    -0.74600
O19         O  0.37971821  0.87981354  0.53837137    -0.74500
O20         O  0.37997063  0.87935441  0.39070715    -0.74500
O21         O  0.37836741  0.84030340  0.46453765    -0.74400
O22         O  0.38083276  0.91846646  0.46383187    -0.74500
Ni23       Ni  0.42674907  0.87791157  0.46455105     1.25400
Ni24       Ni  0.37809818  0.87951295  0.46437628     1.25400
C25         C  0.40372494  0.93082140  0.46189101     0.87800
C26         C  0.40068197  0.82661592  0.46749221     0.87700
C27         C  0.40285803  0.87881997  0.36669186     0.87700
C28         C  0.40253251  0.87977094  0.56242971     0.87900
O29         O  0.35949175  0.10975117  0.97993909    -0.74400
O30         O  0.36221092  0.18755999  0.96595530    -0.74500
O31         O  0.36210930  0.14471419  0.89987415    -0.74500
O32         O  0.36036164  0.15251515  0.04715424    -0.74600
O33         O  0.40570758  0.14926093  0.04840387    -0.74500
O34         O  0.40755035  0.14429329  0.90209728    -0.74500
O35         O  0.40758006  0.18596736  0.97115670    -0.74400
O36         O  0.40486214  0.10713357  0.97881601    -0.74500
Ni37       Ni  0.35943396  0.14869853  0.97328950     1.25400
Ni38       Ni  0.40803598  0.14654648  0.97527533     1.25400
C39         C  0.38151905  0.09544556  0.98044089     0.87800
C40         C  0.38524026  0.19962480  0.96614663     0.87700
C41         C  0.38526481  0.14381250  0.87674981     0.87700
C42         C  0.38291560  0.15204449  0.07208491     0.87900
O43         O  0.34840030  0.10184048  0.46765854    -0.74400
O44         O  0.33742131  0.17861860  0.48390442    -0.74500
O45         O  0.34194691  0.14385102  0.40259919    -0.74500
O46         O  0.34402543  0.13635408  0.54849907    -0.74600
O47         O  0.38892750  0.14282940  0.54769304    -0.74500
O48         O  0.38700315  0.14909962  0.40058548    -0.74500
O49         O  0.38235634  0.18486825  0.48092840    -0.74400
O50         O  0.39347263  0.10693337  0.46726314    -0.74500
Ni51       Ni  0.34143380  0.13998273  0.47566353     1.25400
Ni52       Ni  0.38961188  0.14616861  0.47406142     1.25400
C53         C  0.37247247  0.09153509  0.46494444     0.87800
C54         C  0.35797542  0.19447817  0.48535101     0.87700
C55         C  0.36407209  0.14735392  0.37728731     0.87700
C56         C  0.36670369  0.13847214  0.57233397     0.87900
O57         O  0.87205078  0.53965601  0.01655336    -0.74400
O58         O  0.79406741  0.54088347  0.00900037    -0.74500
O59         O  0.83525284  0.53561160  0.93913351    -0.74500
O60         O  0.83080691  0.54524696  0.08545757    -0.74600
O61         O  0.83195600  0.59043425  0.07560261    -0.74500
O62         O  0.83522983  0.58087577  0.93010993    -0.74500
O63         O  0.79442121  0.58613077  0.99923343    -0.74400
O64         O  0.87282943  0.58476671  0.00580441    -0.74500
Ni65       Ni  0.83303627  0.53873290  0.01279296     1.25400
Ni66       Ni  0.83363239  0.58715307  0.00236900     1.25400
C67         C  0.88536830  0.56193393  0.01262785     0.87800
C68         C  0.78138761  0.56365808  0.00319771     0.87700
C69         C  0.83566420  0.55680982  0.91050304     0.87700
C70         C  0.83084898  0.56947699  0.10460916     0.87900
O71         O  0.87035643  0.54318740  0.51103612    -0.74400
O72         O  0.79191577  0.54041384  0.50789884    -0.74500
O73         O  0.83150257  0.53971638  0.43636050    -0.74500
O74         O  0.83051608  0.54393099  0.58323743    -0.74600
O75         O  0.82847619  0.58938618  0.57901067    -0.74500
O76         O  0.82936730  0.58519208  0.43223444    -0.74500
O77         O  0.78985749  0.58594920  0.50518669    -0.74400
O78         O  0.86810329  0.58858243  0.50627656    -0.74500
Ni79       Ni  0.83119233  0.54019138  0.50986412     1.25400
Ni80       Ni  0.82892923  0.58887996  0.50558232     1.25400
C81         C  0.88219644  0.56641233  0.50916099     0.87800
C82         C  0.77804068  0.56271852  0.50515383     0.87700
C83         C  0.82982351  0.56170495  0.41013714     0.87700
C84         C  0.82939536  0.56741280  0.60535543     0.87900
O85         O  0.06095961  0.60014163  0.00868044    -0.74400
O86         O  0.13909857  0.59882765  0.01170219    -0.74500
O87         O  0.10050207  0.60021830  0.93695568    -0.74500
O88         O  0.09876398  0.59854530  0.08386923    -0.74600
O89         O  0.09903651  0.55298614  0.08194726    -0.74500
O90         O  0.10038406  0.55467937  0.93469902    -0.74500
O91         O  0.13916602  0.55329931  0.00985423    -0.74400
O92         O  0.06051038  0.55459754  0.00742092    -0.74500
Ni93       Ni  0.09995126  0.60100504  0.01044512     1.25400
Ni94       Ni  0.09983004  0.55224328  0.00831167     1.25400
C95         C  0.04780538  0.57768318  0.00733981     0.87800
C96         C  0.15211032  0.57596139  0.01161758     0.87700
C97         C  0.09998701  0.57771127  0.91154019     0.87700
C98         C  0.09813876  0.57557465  0.10714533     0.87900
O99         O  0.05590189  0.57511043  0.50885880    -0.74400
O100        O  0.13343299  0.58267995  0.50930482    -0.74500
O101        O  0.09495068  0.57783818  0.43495675    -0.74500
O102        O  0.09440524  0.57924216  0.58266083    -0.74600
O103        O  0.10011183  0.53400381  0.58245780    -0.74500
O104        O  0.09928099  0.53246928  0.43591116    -0.74500
O105        O  0.13862220  0.53736569  0.50778486    -0.74400
O106        O  0.06035534  0.52978888  0.51101735    -0.74500
Ni107      Ni  0.09447716  0.58031061  0.50881784     1.25400
Ni108      Ni  0.09971342  0.53178498  0.50926909     1.25400
C109        C  0.04521993  0.55138973  0.51092309     0.87800
C110        C  0.14886968  0.56141510  0.50858883     0.87700
C111        C  0.09744849  0.55486376  0.41112291     0.87700
C112        C  0.09752643  0.55670767  0.60687303     0.87900
O113        O  0.51302339  0.09110633  0.03527368    -0.74400
O114        O  0.51457568  0.17039922  0.03034166    -0.74500
O115        O  0.51426842  0.12927727  0.95944338    -0.74500
O116        O  0.51259281  0.13225459  0.10642146    -0.74600
O117        O  0.55798582  0.13052547  0.10802651    -0.74500
O118        O  0.55967585  0.12853300  0.96033891    -0.74500
O119        O  0.55995637  0.16857561  0.03345873    -0.74400
O120        O  0.55840861  0.09036207  0.03547657    -0.74500
Ni121      Ni  0.51198454  0.13080169  0.03279186     1.25400
Ni122      Ni  0.56057032  0.12943148  0.03431080     1.25400
C123        C  0.53570226  0.07765521  0.03631298     0.87800
C124        C  0.53772700  0.18250054  0.03165448     0.87700
C125        C  0.53712182  0.12862663  0.93547283     0.87700
C126        C  0.53496948  0.13185438  0.13162416     0.87900
O127        O  0.48977592  0.08848677  0.53508809    -0.74400
O128        O  0.48611205  0.16771090  0.53535879    -0.74500
O129        O  0.48700675  0.12793047  0.46095426    -0.74500
O130        O  0.48867764  0.12838848  0.60839447    -0.74600
O131        O  0.53400451  0.13067501  0.60638567    -0.74500
O132        O  0.53236700  0.12952613  0.45914529    -0.74500
O133        O  0.53148365  0.16925308  0.53165534    -0.74400
O134        O  0.53505736  0.09096390  0.53349253    -0.74500
Ni135      Ni  0.48624211  0.12806617  0.53491243     1.25400
Ni136      Ni  0.53477152  0.13013418  0.53258264     1.25400
C137        C  0.51330701  0.07666318  0.53511805     0.87800
C138        C  0.50827530  0.18148196  0.53345614     0.87700
C139        C  0.50946734  0.12890605  0.43562942     0.87700
C140        C  0.51159925  0.12955525  0.63178800     0.87900
O141        O  0.54170349  0.90244037  0.05779444    -0.74400
O142        O  0.54547754  0.82388608  0.05765357    -0.74500
O143        O  0.53964825  0.86274229  0.98488952    -0.74500
O144        O  0.54744709  0.86342737  0.13074991    -0.74600
O145        O  0.50231832  0.86098533  0.13953452    -0.74500
O146        O  0.49443155  0.86154010  0.99336199    -0.74500
O147        O  0.50019569  0.82215501  0.06442534    -0.74400
O148        O  0.49661784  0.90081717  0.06744556    -0.74500
Ni149      Ni  0.54515573  0.86320217  0.05753518     1.25400
Ni150      Ni  0.49678231  0.86136326  0.06667450     1.25400
C151        C  0.51851959  0.91468134  0.06200878     0.87800
C152        C  0.52344658  0.81007493  0.06003525     0.87700
C153        C  0.51580956  0.86192256  0.96500026     0.87700
C154        C  0.52619825  0.86197194  0.15927190     0.87900
O155        O  0.53681582  0.90384810  0.55565153    -0.74400
O156        O  0.55332078  0.82712216  0.56174752    -0.74500
O157        O  0.54198231  0.86293846  0.48539412    -0.74500
O158        O  0.54766689  0.86792211  0.63178400    -0.74600
O159        O  0.50343758  0.85863890  0.63890584    -0.74500
O160        O  0.49750194  0.85495360  0.49296131    -0.74500
O161        O  0.50889991  0.81828527  0.56701720    -0.74400
O162        O  0.49246380  0.89567555  0.56399637    -0.74500
Ni163      Ni  0.54649782  0.86579482  0.55838627     1.25400
Ni164      Ni  0.49899521  0.85658873  0.56607670     1.25400
C165        C  0.51211184  0.91259485  0.55873669     0.87800
C166        C  0.53383088  0.80999318  0.56480317     0.87700
C167        C  0.51873429  0.85811500  0.46502747     0.87700
C168        C  0.52649312  0.86380012  0.65953951     0.87900
N169        N  0.40528791  0.45397133  0.97237445    -0.36600
N170        N  0.39989261  0.39910977  0.93066510    -0.57200
N171        N  0.34118158  0.40107805  0.95312587    -0.36600
N172        N  0.34564543  0.45766870  0.98521093    -0.57200
C173        C  0.43015999  0.44988500  0.95022560     0.27000
C174        C  0.40021131  0.48134892  0.97316887     0.27000
C175        C  0.34310024  0.37610521  0.93030145     0.27000
C176        C  0.31437565  0.40844264  0.95484909     0.27000
C177        C  0.42737925  0.40106371  0.92618824     0.35600
C178        C  0.39372525  0.37297204  0.91808632     0.35600
C179        C  0.35371620  0.48053799  0.01003302     0.35600
C180        C  0.31960975  0.45313605  0.99991587     0.35600
C181        C  0.44049142  0.47505186  0.93639997    -0.21900
C182        C  0.42153233  0.49460656  0.94971643    -0.21900
C183        C  0.31711981  0.36738484  0.91781195    -0.21900
C184        C  0.29921742  0.38799057  0.93182909    -0.21900
C185        C  0.43822537  0.37692657  0.90634221    -0.22900
C186        C  0.41706565  0.35909491  0.90184586    -0.22900
C187        C  0.33290313  0.49022806  0.04170842    -0.22900
C188        C  0.31117704  0.47304589  0.03481300    -0.22900
C189        C  0.44306875  0.42393298  0.94156202    -0.18300
C190        C  0.37780287  0.49482186  0.99771603    -0.18300
C191        C  0.30305750  0.43199663  0.98016000    -0.18300
C192        C  0.36762299  0.36078587  0.92212879    -0.18300
H193        H  0.45867894  0.47969151  0.91589563     0.14600
H194        H  0.42330700  0.51623072  0.94250594     0.14600
H195        H  0.31122499  0.34840374  0.89993231     0.14600
H196        H  0.27737000  0.38750136  0.92647918     0.14600
H197        H  0.45933086  0.37240013  0.89704940     0.12900
H198        H  0.41874352  0.33817749  0.88827140     0.12900
H199        H  0.33298991  0.50841507  0.06563951     0.12900
H200        H  0.29140736  0.47507961  0.05313098     0.12900
H201        H  0.39378898  0.43912964  0.99069731     0.26200
H202        H  0.35704694  0.41091483  0.97166758     0.26200
N203        N  0.39230975  0.45345817  0.51890175    -0.36600
N204        N  0.33314619  0.45887540  0.50469716    -0.57200
N205        N  0.32827752  0.39997818  0.50857588    -0.36600
N206        N  0.38760679  0.39521402  0.52066224    -0.57200
C207        C  0.38758432  0.47945062  0.53501040     0.27000
C208        C  0.41743740  0.44614480  0.53590112     0.27000
C209        C  0.30326303  0.40664871  0.49022072     0.27000
C210        C  0.33247094  0.37288764  0.49921646     0.27000
C211        C  0.34044347  0.48543441  0.50123528     0.35600
C212        C  0.30624437  0.45756890  0.49302728     0.35600
C213        C  0.41325641  0.39760045  0.53856387     0.35600
C214        C  0.37897495  0.37038958  0.53503993     0.35600
C215        C  0.40952970  0.48829215  0.56409599    -0.21900
C216        C  0.42836393  0.46727898  0.56460169    -0.21900
C217        C  0.29128283  0.38341290  0.46987316    -0.21900
C218        C  0.30980709  0.36225284  0.47485474    -0.21900
C219        C  0.31837803  0.50077950  0.48440350    -0.22900
C220        C  0.29655030  0.48359766  0.48199428    -0.22900
C221        C  0.42019485  0.37507670  0.56783984    -0.22900
C222        C  0.39869228  0.35742276  0.56434153    -0.22900
C223        C  0.36552087  0.49636358  0.51924323    -0.18300
C224        C  0.42998068  0.42019955  0.52831262    -0.18300
C225        C  0.35594303  0.35764004  0.51395012    -0.18300
C226        C  0.29078519  0.43307632  0.49055462    -0.18300
H227        H  0.41192661  0.50806194  0.58237025     0.14600
H228        H  0.44765594  0.46736556  0.58462686     0.14600
H229        H  0.27148900  0.38201673  0.45185541     0.14600
H230        H  0.30676528  0.34147144  0.46185027     0.14600
H231        H  0.31748723  0.52241804  0.47658069     0.12900
H232        H  0.27613755  0.49019897  0.47275606     0.12900
H233        H  0.43898385  0.37148316  0.58847969     0.12900
H234        H  0.39783723  0.33710659  0.58034101     0.12900
H235        H  0.38062721  0.44253272  0.49281964     0.26200
H236        H  0.34086982  0.41258215  0.52994682     0.26200
N237        N  0.41005255  0.56342063  0.02052955    -0.36600
N238        N  0.41482242  0.62250886  0.02885084    -0.57200
N239        N  0.35600420  0.62696788  0.01697127    -0.36600
N240        N  0.35210592  0.56755414  0.01218819    -0.57200
C241        C  0.43529981  0.56647897  0.04012258     0.27000
C242        C  0.40209631  0.53753700  0.02987072     0.27000
C243        C  0.36272364  0.65225215  0.03391370     0.27000
C244        C  0.32938621  0.62287014  0.02863227     0.27000
C245        C  0.44056540  0.61465533  0.01604582     0.35600
C246        C  0.41186614  0.64890976  0.01440162     0.35600
C247        C  0.35687553  0.54246204  0.99176768     0.35600
C248        C  0.32757525  0.57587365  0.99466338     0.35600
C249        C  0.44327829  0.54243285  0.06391357    -0.21900
C250        C  0.42223543  0.52411791  0.05747518    -0.21900
C251        C  0.34019711  0.66429182  0.05763707    -0.21900
C252        C  0.31919828  0.64569259  0.05456839    -0.21900
C253        C  0.45391050  0.63608837  0.99263497    -0.22900
C254        C  0.43579280  0.65778579  0.99177173    -0.22900
C255        C  0.33560291  0.53516220  0.95971332    -0.22900
C256        C  0.31682173  0.55623233  0.96212487    -0.22900
C257        C  0.45231848  0.58888283  0.02878406    -0.18300
C258        C  0.37885756  0.52543240  0.00710304    -0.18300
C259        C  0.31408238  0.59988792  0.01199289    -0.18300
C260        C  0.38807565  0.66506701  0.02397200    -0.18300
H261        H  0.46277414  0.53809280  0.08155724     0.14600
H262        H  0.42234363  0.50297910  0.06933319     0.14600
H263        H  0.33892394  0.68447584  0.07483723     0.14600
H264        H  0.29868142  0.64888115  0.06898342     0.14600
H265        H  0.47454683  0.63616684  0.97779972     0.12900
H266        H  0.43977150  0.67768852  0.97580057     0.12900
H267        H  0.33343777  0.51634808  0.93807252     0.12900
H268        H  0.29741408  0.55694734  0.94252326     0.12900
H269        H  0.40074532  0.57677453  0.99481064     0.26200
H270        H  0.36806114  0.61455206  0.99315504     0.26200
N271        N  0.40224502  0.56371368  0.50678014    -0.36600
N272        N  0.40502542  0.62182981  0.48334048    -0.57200
N273        N  0.34729541  0.62835107  0.50931696    -0.36600
N274        N  0.34520968  0.56998742  0.52781639    -0.57200
C275        C  0.42627739  0.56580823  0.48188864     0.27000
C276        C  0.39257672  0.53838828  0.49689647     0.27000
C277        C  0.35191005  0.65297886  0.48764207     0.27000
C278        C  0.31988788  0.62442859  0.51039194     0.27000
C279        C  0.43197544  0.61544422  0.47958264     0.35600
C280        C  0.40274239  0.64924065  0.47697750     0.35600
C281        C  0.34993469  0.54435044  0.54445654     0.35600
C282        C  0.32114539  0.57808296  0.54799567     0.35600
C283        C  0.43174250  0.54179532  0.45490779    -0.21900
C284        C  0.41029023  0.52460279  0.46390418    -0.21900
C285        C  0.32697889  0.66532021  0.47674112    -0.21900
C286        C  0.30691588  0.64713061  0.48996272    -0.21900
C287        C  0.44659080  0.63859305  0.46750181    -0.22900
C288        C  0.42822022  0.65994142  0.46619903    -0.22900
C289        C  0.32934200  0.53643886  0.57750808    -0.22900
C290        C  0.31082824  0.55777370  0.57920892    -0.22900
C291        C  0.44336546  0.58876102  0.48526386    -0.18300
C292        C  0.36948672  0.52695294  0.52106944    -0.18300
C293        C  0.30649716  0.60119037  0.53081619    -0.18300
C294        C  0.37795150  0.66470581  0.47825027    -0.18300
H295        H  0.44872646  0.53714422  0.42980170     0.14600
H296        H  0.40824266  0.50413445  0.44846014     0.14600
H297        H  0.32332400  0.68519158  0.46020769     0.14600
H298        H  0.28524666  0.65050475  0.48524530     0.14600
H299        H  0.46819149  0.63991653  0.45945686     0.12900
H300        H  0.43314924  0.68088177  0.45737730     0.12900
H301        H  0.32688427  0.51665663  0.59509352     0.12900
H302        H  0.29134762  0.55781617  0.59888767     0.12900
H303        H  0.39469020  0.57777298  0.53373896     0.26200
H304        H  0.36197729  0.61589950  0.52611611     0.26200
N305        N  0.51214782  0.44846380  0.96908133    -0.36600
N306        N  0.50944932  0.38838412  0.97928921    -0.57200
N307        N  0.56626904  0.38432559  0.01015228    -0.36600
N308        N  0.56977504  0.44289814  0.99381247    -0.57200
C309        C  0.49323350  0.43860699  0.93669559     0.27000
C310        C  0.52578767  0.46818092  0.94424314     0.27000
C311        C  0.56035348  0.35827866  0.99657723     0.27000
C312        C  0.59338706  0.38798852  0.00294516     0.27000
C313        C  0.48311238  0.39700785  0.98103144     0.35600
C314        C  0.51055615  0.36365494  0.00197304     0.35600
C315        C  0.56437082  0.46984915  0.00041499     0.35600
C316        C  0.59231526  0.43716124  0.02130967     0.35600
C317        C  0.49627332  0.45046264  0.88890395    -0.21900
C318        C  0.51703335  0.46943625  0.89378686    -0.21900
C319        C  0.58407378  0.34509768  0.98028049    -0.21900
C320        C  0.60490788  0.36388405  0.98407937    -0.21900
C321        C  0.46762102  0.37824691  0.00779244    -0.22900
C322        C  0.48492614  0.35684209  0.02008375    -0.22900
C323        C  0.58258219  0.48095780  0.03526708    -0.22900
C324        C  0.60070942  0.46030431  0.04760498    -0.22900
C325        C  0.47342811  0.41971344  0.95217062    -0.18300
C326        C  0.54587550  0.48415592  0.96834989    -0.18300
C327        C  0.60736361  0.41256841  0.01496947    -0.18300
C328        C  0.53406046  0.34647847  0.00094174    -0.18300
H329        H  0.48426147  0.44647142  0.85495193     0.14600
H330        H  0.52448451  0.48286092  0.86419775     0.14600
H331        H  0.58614981  0.32426245  0.96646554     0.14600
H332        H  0.62599899  0.36017198  0.97363920     0.14600
H333        H  0.44595383  0.37919724  0.01565202     0.12900
H334        H  0.47923475  0.33824906  0.03939485     0.12900
H335        H  0.58375206  0.50199707  0.04807144     0.12900
H336        H  0.61857979  0.46227949  0.07154208     0.12900
H337        H  0.51397963  0.44368376  0.00796563     0.26200
H338        H  0.55279689  0.39824322  0.02756176     0.26200
N339        N  0.50129661  0.44700184  0.52533859    -0.36600
N340        N  0.56016105  0.44389120  0.53258183    -0.57200
N341        N  0.55963992  0.38424841  0.54002773    -0.36600
N342        N  0.50049018  0.38587107  0.52698975    -0.57200
C343        C  0.50909129  0.47058279  0.50222709     0.27000
C344        C  0.47622467  0.44068453  0.50794151     0.27000
C345        C  0.58693452  0.38883022  0.54077492     0.27000
C346        C  0.55565741  0.35721694  0.53085437     0.27000
C347        C  0.55356981  0.47027265  0.54262432     0.35600
C348        C  0.58364299  0.43861519  0.55749813     0.35600
C349        C  0.47414994  0.39152260  0.51496725     0.35600
C350        C  0.50511711  0.35920436  0.51465951     0.35600
C351        C  0.48862566  0.47862572  0.46854781    -0.21900
C352        C  0.46792756  0.45995206  0.47257804    -0.21900
C353        C  0.60057940  0.36418947  0.53322117    -0.21900
C354        C  0.58102777  0.34427817  0.52858750    -0.21900
C355        C  0.57225463  0.48148984  0.57636954    -0.22900
C356        C  0.59182387  0.46157315  0.58458777    -0.22900
C357        C  0.46277999  0.36894756  0.49108330    -0.22900
C358        C  0.48198640  0.34839319  0.49217535    -0.22900
C359        C  0.53388536  0.48462008  0.51351601    -0.18300
C360        C  0.46102183  0.41742265  0.52205917    -0.18300
C361        C  0.52996450  0.34429394  0.52181623    -0.18300
C362        C  0.59943980  0.41465319  0.54974287    -0.18300
H363        H  0.48824175  0.49547694  0.44231282     0.14600
H364        H  0.44921190  0.46006229  0.45068711     0.14600
H365        H  0.62233749  0.36056893  0.53148775     0.14600
H366        H  0.58548565  0.32278779  0.52325020     0.14600
H367        H  0.57279498  0.50238061  0.59028408     0.12900
H368        H  0.61031075  0.46386430  0.60669534     0.12900
H369        H  0.44298303  0.36753702  0.47314755     0.12900
H370        H  0.47951192  0.32810021  0.47614487     0.12900
H371        H  0.51140347  0.43664670  0.55460022     0.26200
H372        H  0.54465589  0.39875801  0.54761740     0.26200
N373        N  0.52078589  0.55368306  0.00089822    -0.36600
N374        N  0.57805638  0.55449148  0.96874270    -0.57200
N375        N  0.58266653  0.61023517  0.00995474    -0.36600
N376        N  0.52496587  0.61031347  0.03384083    -0.57200
C377        C  0.52299621  0.53121343  0.97028423     0.27000
C378        C  0.49460979  0.56297332  0.99784099     0.27000
C379        C  0.60752237  0.60725609  0.98765477     0.27000
C380        C  0.57838120  0.63733002  0.01907790     0.27000
C381        C  0.57287471  0.52784414  0.95817034     0.35600
C382        C  0.60538287  0.55759267  0.96340619     0.35600
C383        C  0.49979251  0.60425574  0.05114622     0.35600
C384        C  0.53223568  0.63363041  0.05780483     0.35600
C385        C  0.49806622  0.52662643  0.94707570    -0.21900
C386        C  0.48039477  0.54674525  0.96380025    -0.21900
C387        C  0.61949555  0.63274748  0.98390713    -0.21900
C388        C  0.60091410  0.65167106  0.00236795    -0.21900
C389        C  0.59664856  0.51460089  0.94248752    -0.22900
C390        C  0.61719756  0.53326346  0.94632271    -0.22900
C391        C  0.49131459  0.62331464  0.08761414    -0.22900
C392        C  0.51186479  0.64205306  0.09166052    -0.22900
C393        C  0.54707504  0.51510098  0.96346257    -0.18300
C394        C  0.48297613  0.58483815  0.02711934    -0.18300
C395        C  0.55520956  0.64917985  0.04415520    -0.18300
C396        C  0.62004506  0.58207123  0.97263158    -0.18300
H397        H  0.49298622  0.51187309  0.91825980     0.14600
H398        H  0.45951374  0.54932207  0.95147651     0.14600
H399        H  0.63940737  0.63764723  0.96899970     0.14600
H400        H  0.60404637  0.67349426  0.00370293     0.14600
H401        H  0.59903392  0.49354796  0.93006153     0.12900
H402        H  0.63843749  0.52929897  0.93727069     0.12900
H403        H  0.47179208  0.62440760  0.10707857     0.12900
H404        H  0.51144759  0.66034064  0.11532535     0.12900
H405        H  0.53570264  0.56055355  0.02617750     0.26200
H406        H  0.57056697  0.59433868  0.02256145     0.26200
N407        N  0.50222609  0.54460504  0.50762790    -0.36600
N408        N  0.51465437  0.60738321  0.52324874    -0.57200
N409        N  0.57435508  0.60638216  0.52655556    -0.36600
N410        N  0.57311951  0.55013205  0.49368346    -0.57200
C411        C  0.48829909  0.56244190  0.47781906     0.27000
C412        C  0.51976387  0.53105022  0.47646333     0.27000
C413        C  0.56889782  0.63367116  0.52581049     0.27000
C414        C  0.60053816  0.60255466  0.51081856     0.27000
C415        C  0.48767616  0.60289839  0.52945683     0.35600
C416        C  0.52026665  0.63035445  0.54998347     0.35600
C417        C  0.56730845  0.52325186  0.48855690     0.35600
C418        C  0.60051807  0.55206694  0.49767546     0.35600
C419        C  0.49729049  0.56054960  0.42754451    -0.21900
C420        C  0.51776676  0.54098907  0.42691087    -0.21900
C421        C  0.59196897  0.64730874  0.50948206    -0.21900
C422        C  0.61197863  0.62775167  0.50076362    -0.21900
C423        C  0.47644779  0.62185089  0.56337113    -0.22900
C424        C  0.49708832  0.63947127  0.57598527    -0.22900
C425        C  0.59125910  0.50819046  0.48470809    -0.22900
C426        C  0.61224298  0.52620428  0.49232466    -0.22900
C427        C  0.47332841  0.58468966  0.49747690    -0.18300
C428        C  0.54036931  0.51315384  0.49310688    -0.18300
C429        C  0.61460854  0.57699550  0.50609045    -0.18300
C430        C  0.54373336  0.64620360  0.54087472    -0.18300
H431        H  0.49132777  0.57349942  0.39595602     0.14600
H432        H  0.53027674  0.53510172  0.39425050     0.14600
H433        H  0.59430134  0.66903938  0.50408864     0.14600
H434        H  0.63248021  0.63159356  0.48730973     0.14600
H435        H  0.45530844  0.62387958  0.57497771     0.12900
H436        H  0.49489968  0.65796831  0.59877588     0.12900
H437        H  0.59343810  0.48639431  0.47878799     0.12900
H438        H  0.63351962  0.52042737  0.49457499     0.12900
H439        H  0.50109538  0.54310386  0.54756614     0.26200
H440        H  0.56158743  0.59142674  0.54113112     0.26200
O441        O  0.04687507  0.46991774  0.96755863    -0.74400
O442        O  0.12560155  0.47627863  0.96647602    -0.74500
O443        O  0.08523058  0.47631522  0.89400144    -0.74500
O444        O  0.08662424  0.47009120  0.04035228    -0.74600
O445        O  0.09069977  0.42483716  0.03265596    -0.74500
O446        O  0.08995764  0.43111821  0.88629423    -0.74500
O447        O  0.12946969  0.43097488  0.96011761    -0.74400
O448        O  0.05146859  0.42476141  0.95962249    -0.74500
Ni449      Ni  0.08603039  0.47479248  0.96735660     1.25400
Ni450      Ni  0.09059878  0.42637385  0.95930921     1.25400
C451        C  0.03619421  0.44613400  0.96343903     0.87800
C452        C  0.14051569  0.45451221  0.96423033     0.87700
C453        C  0.08651182  0.45467879  0.86603844     0.87700
C454        C  0.08866602  0.44640350  0.06068151     0.87900
O455        O  0.03556861  0.46955441  0.46898295    -0.74400
O456        O  0.11420307  0.47403262  0.46497694    -0.74500
O457        O  0.07377956  0.47529421  0.39422140    -0.74500
O458        O  0.07598947  0.46848181  0.54050961    -0.74600
O459        O  0.07886303  0.42316664  0.53225261    -0.74500
O460        O  0.07739066  0.43002223  0.38605521    -0.74500
O461        O  0.11695847  0.42861427  0.45848978    -0.74400
O462        O  0.03888247  0.42429643  0.46080547    -0.74500
Ni463      Ni  0.07475827  0.47347423  0.46750898     1.25400
Ni464      Ni  0.07806365  0.42495447  0.45900152     1.25400
C465        C  0.02425881  0.44605712  0.46576048     0.87800
C466        C  0.12846901  0.45193501  0.46143776     0.87700
C467        C  0.07555474  0.45379891  0.36597741     0.87700
C468        C  0.07803170  0.44470222  0.56051188     0.87900
O469        O  0.86141993  0.42719381  0.97173839    -0.74400
O470        O  0.78305056  0.42005015  0.98248683    -0.74500
O471        O  0.82008666  0.42138909  0.90344543    -0.74500
O472        O  0.82438830  0.42562889  0.05023756    -0.74600
O473        O  0.82042967  0.47100013  0.04619431    -0.74500
O474        O  0.81512627  0.46662818  0.89955960    -0.74500
O475        O  0.77879234  0.46535190  0.97852720    -0.74400
O476        O  0.85647335  0.47238600  0.96718889    -0.74500
Ni477      Ni  0.82239929  0.42192780  0.97703217     1.25400
Ni478      Ni  0.81750346  0.47039692  0.97277423     1.25400
C479        C  0.87188220  0.45105998  0.96758857     0.87800
C480        C  0.76799829  0.44169891  0.98259348     0.87700
C481        C  0.81724857  0.44328161  0.87717222     0.87700
C482        C  0.82308460  0.44907591  0.07238163     0.87900
O483        O  0.84960156  0.43109683  0.47367506    -0.74400
O484        O  0.77148019  0.42457637  0.48515585    -0.74500
O485        O  0.80841402  0.42297723  0.40588434    -0.74500
O486        O  0.81280266  0.43230531  0.55148239    -0.74600
O487        O  0.80692010  0.47726469  0.54337342    -0.74500
O488        O  0.80541769  0.46814732  0.39661149    -0.74500
O489        O  0.76681741  0.46941636  0.47321311    -0.74400
O490        O  0.84498309  0.47623908  0.46687872    -0.74500
Ni491      Ni  0.81069023  0.42615626  0.47919783     1.25400
Ni492      Ni  0.80580220  0.47437490  0.46962243     1.25400
C493        C  0.86024564  0.45481561  0.46898285     0.87800
C494        C  0.75627584  0.44601157  0.48206936     0.87700
C495        C  0.80717653  0.44403430  0.37709122     0.87700
C496        C  0.81033481  0.45615670  0.57163099     0.87900
C497        C  0.81702111  0.44156615  0.82028156    -0.05200
C498        C  0.82437785  0.41698016  0.79528286    -0.05200
C499        C  0.82504841  0.41526426  0.74177669    -0.23300
C500        C  0.81818199  0.43804966  0.71211087     0.18900
C501        C  0.81062956  0.46288032  0.73655737     0.16100
C502        C  0.81019180  0.46452801  0.79048866    -0.18400
C503        C  0.80349740  0.48553644  0.70656733    -0.20200
C504        C  0.80390645  0.48362576  0.65291379    -0.12800
C505        C  0.81116885  0.45891954  0.62830061     0.03900
C506        C  0.81845108  0.43625257  0.65837876    -0.24900
H507        H  0.82990230  0.39904067  0.81712638     0.09000
H508        H  0.83087952  0.39606419  0.72359575     0.12600
H509        H  0.80443087  0.48361522  0.80917246     0.12500
H510        H  0.79738562  0.50467369  0.72460498     0.12300
H511        H  0.79808697  0.50135636  0.63073898     0.12800
H512        H  0.82415614  0.41704974  0.64003410     0.14800
C513        C  0.82421456  0.45096258  0.12892972    -0.05200
C514        C  0.83525265  0.47416712  0.15269676    -0.05200
C515        C  0.83509345  0.47685247  0.20610218    -0.23300
C516        C  0.82296198  0.45685963  0.23664971     0.18900
C517        C  0.81231177  0.43311743  0.21320582     0.16100
C518        C  0.81336772  0.43012879  0.15949668    -0.18400
C519        C  0.80044875  0.41299588  0.24388112    -0.20200
C520        C  0.79873658  0.41657760  0.29716161    -0.12800
C521        C  0.80863301  0.44042148  0.32066747     0.03900
C522        C  0.82105821  0.46033191  0.29014639    -0.24900
H523        H  0.84407498  0.49025064  0.12987548     0.09000
H524        H  0.84408217  0.49479629  0.22340721     0.12600
H525        H  0.80484615  0.41212036  0.14141027     0.12500
H526        H  0.79232254  0.39458712  0.22665222     0.12300
H527        H  0.78937358  0.40082334  0.32001110     0.12800
H528        H  0.82954799  0.47834864  0.30815188     0.14800
C529        C  0.99398639  0.44366767  0.46837108    -0.05200
C530        C  0.98219921  0.41861605  0.48179436    -0.05200
C531        C  0.95386057  0.41585926  0.48480001    -0.23300
C532        C  0.93653870  0.43804754  0.47405119     0.18900
C533        C  0.94800875  0.46332564  0.46019121     0.16100
C534        C  0.97662949  0.46601292  0.45754163    -0.18400
C535        C  0.93060984  0.48542151  0.44905874    -0.20200
C536        C  0.90223568  0.48264423  0.45222068    -0.12800
C537        C  0.89050992  0.45759296  0.46596401     0.03900
C538        C  0.90796758  0.43531195  0.47672039    -0.24900
H539        H  0.99496392  0.40107767  0.49050136     0.09000
H540        H  0.94549178  0.39630322  0.49548632     0.12600
H541        H  0.98535607  0.48535633  0.44651621     0.12500
H542        H  0.93894983  0.50490947  0.43791283     0.12300
H543        H  0.88944009  0.50014579  0.44344077     0.12800
H544        H  0.89936293  0.41585588  0.48742698     0.14800
C545        C  0.08000417  0.44196031  0.61684980    -0.05200
C546        C  0.09027845  0.41765359  0.63815307    -0.05200
C547        C  0.09345396  0.41521629  0.69115423    -0.23300
C548        C  0.08619442  0.43696839  0.72390945     0.18900
C549        C  0.07512666  0.46123136  0.70304243     0.16100
C550        C  0.07229192  0.46367295  0.64966139    -0.18400
C551        C  0.06729202  0.48271964  0.73593284    -0.20200
C552        C  0.07140761  0.48067199  0.78878928    -0.12800
C553        C  0.08299580  0.45689787  0.80985923     0.03900
C554        C  0.08995939  0.43491047  0.77712867    -0.24900
H555        H  0.09640994  0.40064401  0.61370731     0.09000
H556        H  0.10180522  0.39640105  0.70647029     0.12600
H557        H  0.06416443  0.48245410  0.63371949     0.12500
H558        H  0.05833785  0.50128809  0.72073200     0.12300
H559        H  0.06536785  0.49771812  0.81323134     0.12800
H560        H  0.09854410  0.41631022  0.79295514     0.14800
C561        C  0.08839555  0.44378303  0.11717893    -0.05200
C562        C  0.09651939  0.41910620  0.14007263    -0.05200
C563        C  0.09569843  0.41619222  0.19331583    -0.23300
C564        C  0.08642147  0.43779931  0.22463804     0.18900
C565        C  0.07813665  0.46269733  0.20206664     0.16100
C566        C  0.07942142  0.46563197  0.14857152    -0.18400
C567        C  0.06848076  0.48414795  0.23337597    -0.20200
C568        C  0.06735052  0.48109214  0.28660688    -0.12800
C569        C  0.07586903  0.45655731  0.30950547     0.03900
C570        C  0.08524209  0.43488995  0.27812733    -0.24900
H571        H  0.10359882  0.40200302  0.11677343     0.09000
H572        H  0.10214063  0.39697030  0.20995427     0.12600
H573        H  0.07297153  0.48473067  0.13139603     0.12500
H574        H  0.06191663  0.50333462  0.21675072     0.12300
H575        H  0.05987166  0.49802634  0.30991191     0.12800
H576        H  0.09190978  0.41586973  0.29530872     0.14800
C577        C  0.00591326  0.44287214  0.96316461    -0.05200
C578        C  0.99466356  0.41656941  0.96626647    -0.05200
C579        C  0.96640741  0.41286354  0.96700715    -0.23300
C580        C  0.94855902  0.43535203  0.96420769     0.18900
C581        C  0.95944602  0.46186437  0.95967794     0.16100
C582        C  0.98799909  0.46552615  0.95959002    -0.18400
C583        C  0.94153597  0.48423628  0.95536277    -0.20200
C584        C  0.91326178  0.48057491  0.95752772    -0.12800
C585        C  0.90208737  0.45438577  0.96356168     0.03900
C586        C  0.92004423  0.43175726  0.96613127    -0.24900
H587        H  0.00776468  0.39868198  0.96874405     0.09000
H588        H  0.95851811  0.39234151  0.97001500     0.12600
H589        H  0.99620619  0.48593748  0.95668042     0.12500
H590        H  0.94940499  0.50463252  0.95038569     0.12300
H591        H  0.90011521  0.49841030  0.95464856     0.12800
H592        H  0.91189572  0.41138750  0.97017841     0.14800
C593        C  0.62985546  0.41782188  0.54570531    -0.05200
C594        C  0.64801295  0.40221824  0.57539736    -0.05200
C595        C  0.67631958  0.40445568  0.56861721    -0.23300
C596        C  0.68710785  0.42284340  0.53285810     0.18900
C597        C  0.66912083  0.43967680  0.50471747     0.16100
C598        C  0.64073691  0.43686847  0.51094176    -0.18400
C599        C  0.67984792  0.45891964  0.47059767    -0.20200
C600        C  0.70811383  0.46117446  0.46378373    -0.12800
C601        C  0.72624776  0.44378764  0.48991769     0.03900
C602        C  0.71551260  0.42471360  0.52472564    -0.24900
H603        H  0.64026357  0.38803099  0.60343836     0.09000
H604        H  0.68978990  0.39173638  0.59130051     0.12600
H605        H  0.62701693  0.44923907  0.48810799     0.12500
H606        H  0.66636580  0.47226071  0.44917867     0.12300
H607        H  0.71581384  0.47621442  0.43728709     0.12800
H608        H  0.72929510  0.41162202  0.54602783     0.14800
C609        C  0.73771740  0.43978611  0.98651019    -0.05200
C610        C  0.72139425  0.46076432  0.96591019    -0.05200
C611        C  0.69296362  0.45932925  0.96731895    -0.23300
C612        C  0.68007012  0.43713444  0.99038748     0.18900
C613        C  0.69600434  0.41637259  0.01326911     0.16100
C614        C  0.72480371  0.41759192  0.01057372    -0.18400
C615        C  0.68274321  0.39484005  0.03822140    -0.20200
C616        C  0.65411060  0.39373234  0.03972927    -0.12800
C617        C  0.63806489  0.41375287  0.01528398     0.03900
C618        C  0.65147072  0.43541842  0.99066324    -0.24900
H619        H  0.73066733  0.47815483  0.94756072     0.09000
H620        H  0.68103475  0.47562783  0.95022617     0.12600
H621        H  0.73709282  0.40151558  0.02750770     0.12500
H622        H  0.69450773  0.37888971  0.05672872     0.12300
H623        H  0.64448432  0.37714367  0.05991845     0.12800
H624        H  0.63958067  0.45099035  0.97126482     0.14800
C625        C  0.15863514  0.45290146  0.46116659    -0.05200
C626        C  0.17270260  0.46983575  0.42706622    -0.05200
C627        C  0.20129009  0.46860623  0.42382423    -0.23300
C628        C  0.21630504  0.45119942  0.45611257     0.18900
C629        C  0.20224864  0.43530105  0.49248162     0.16100
C630        C  0.17357732  0.43568176  0.49378741    -0.18400
C631        C  0.21708337  0.41929129  0.52706873    -0.20200
C632        C  0.24556002  0.41932564  0.52629488    -0.12800
C633        C  0.26005255  0.43428425  0.48941167     0.03900
C634        C  0.24504388  0.44949483  0.45307072    -0.24900
H635        H  0.16152002  0.48331191  0.40173822     0.09000
H636        H  0.21164986  0.48138733  0.39634139     0.12600
H637        H  0.16282046  0.42281837  0.52065332     0.12500
H638        H  0.20666195  0.40712336  0.55546126     0.12300
H639        H  0.25643848  0.40736457  0.55457177     0.12800
H640        H  0.25558596  0.45999824  0.42257660     0.14800
C641        C  0.17087558  0.45611298  0.96719132    -0.05200
C642        C  0.18500787  0.47898833  0.94908327    -0.05200
C643        C  0.21368534  0.47945660  0.94945126    -0.23300
C644        C  0.22881993  0.45728816  0.96896331     0.18900
C645        C  0.21474280  0.43486380  0.98969956     0.16100
C646        C  0.18603375  0.43425742  0.98803704    -0.18400
C647        C  0.22961526  0.41321314  0.01131640    -0.20200
C648        C  0.25814416  0.41312923  0.01048281    -0.12800
C649        C  0.27256112  0.43426178  0.98671123     0.03900
C650        C  0.25767199  0.45679003  0.96726547    -0.24900
H651        H  0.17389286  0.49620016  0.93331947     0.09000
H652        H  0.22402245  0.49705548  0.93403232     0.12600
H653        H  0.17543847  0.41671809  0.00314078     0.12500
H654        H  0.21916378  0.39609789  0.02829564     0.12300
H655        H  0.26906716  0.39596598  0.02688067     0.12800
H656        H  0.26851478  0.47347257  0.94959943     0.14800
C657        C  0.54019173  0.78026439  0.56500888    -0.05200
C658        C  0.56393007  0.77012403  0.58868536    -0.05200
C659        C  0.56959059  0.74193846  0.58943443    -0.23300
C660        C  0.55203648  0.72342443  0.56511599     0.18900
C661        C  0.52874842  0.73367340  0.53944393     0.16100
C662        C  0.52271023  0.76182770  0.54043835    -0.18400
C663        C  0.51188960  0.71563604  0.51278817    -0.20200
C664        C  0.51771151  0.68768998  0.51206734    -0.12800
C665        C  0.53991281  0.67675987  0.53961528     0.09500
C666        C  0.55721098  0.69493754  0.56595430    -0.24900
H667        H  0.57783062  0.78398853  0.60753699     0.09000
H668        H  0.58773588  0.73465070  0.60882066     0.12600
H669        H  0.50465912  0.76948628  0.52115025     0.12500
H670        H  0.49420447  0.72314917  0.49222113     0.12300
H671        H  0.50440696  0.67436698  0.49048527     0.12800
H672        H  0.57442641  0.68694332  0.58726536     0.14800
C673        C  0.55353652  0.67947264  0.05287056    -0.05200
C674        C  0.57366736  0.69348368  0.08052310    -0.05200
C675        C  0.57199071  0.72190211  0.08716328    -0.23300
C676        C  0.54963784  0.73671611  0.06785499     0.18900
C677        C  0.52868287  0.72265724  0.04198674     0.16100
C678        C  0.53105888  0.69434006  0.03373351    -0.18400
C679        C  0.50566227  0.73715099  0.02487073    -0.20200
C680        C  0.50362649  0.76542782  0.03245836    -0.12800
C681        C  0.52485896  0.77984848  0.05611155     0.03900
C682        C  0.54782180  0.76529806  0.07395548    -0.24900
H683        H  0.59081912  0.68242270  0.09659938     0.09000
H684        H  0.58806611  0.73226438  0.10775619     0.12600
H685        H  0.51529376  0.68372737  0.01264039     0.12500
H686        H  0.48924439  0.72662808  0.00553336     0.12300
H687        H  0.48576887  0.77617245  0.01838768     0.12800
H688        H  0.56414981  0.77619882  0.09282441     0.14800
C689        C  0.51306647  0.86127131  0.90857611    -0.05200
C690        C  0.48811362  0.85454225  0.88552063    -0.05200
C691        C  0.48576326  0.85353283  0.83209214    -0.23300
C692        C  0.50826604  0.85947065  0.80088814     0.18900
C693        C  0.53337101  0.86638200  0.82377309     0.16100
C694        C  0.53563082  0.86712171  0.87732062    -0.18400
C695        C  0.55584970  0.87246868  0.79274654    -0.20200
C696        C  0.55353512  0.87171414  0.73940497    -0.12800
C697        C  0.52871122  0.86481928  0.71610168     0.03900
C698        C  0.50611296  0.85865570  0.74723332    -0.24900
H699        H  0.47045700  0.84981342  0.90878324     0.09000
H700        H  0.46637098  0.84813933  0.81520472     0.12600
H701        H  0.55495704  0.87243497  0.89461415     0.12500
H702        H  0.57522760  0.87783291  0.80972731     0.12300
H703        H  0.57124876  0.87653443  0.71639093     0.12800
H704        H  0.48687986  0.85314695  0.72982248     0.14800
C705        C  0.51618653  0.85626392  0.40859336    -0.05200
C706        C  0.49132727  0.84859041  0.38621835    -0.05200
C707        C  0.48851129  0.84749693  0.33296304    -0.23300
C708        C  0.51038267  0.85441434  0.30106163     0.18900
C709        C  0.53565634  0.86153153  0.32311212     0.16100
C710        C  0.53842067  0.86235100  0.37665483    -0.18400
C711        C  0.55769770  0.86794245  0.29123857    -0.20200
C712        C  0.55461885  0.86779115  0.23800592    -0.12800
C713        C  0.52939263  0.86142533  0.21565598     0.03900
C714        C  0.50736260  0.85452021  0.24753748    -0.24900
H715        H  0.47396618  0.84344522  0.40989669     0.09000
H716        H  0.46916556  0.84142062  0.31676505     0.12600
H717        H  0.55776235  0.86810272  0.39336021     0.12500
H718        H  0.57726669  0.87326405  0.30746964     0.12300
H719        H  0.57195226  0.87304746  0.21432705     0.12800
H720        H  0.48788560  0.84925738  0.23079527     0.14800
C721        C  0.50743753  0.21189034  0.53417442    -0.05200
C722        C  0.48920966  0.22613352  0.56670237    -0.05200
C723        C  0.49025904  0.25470672  0.57127143    -0.23300
C724        C  0.50902866  0.26969188  0.54220127     0.18900
C725        C  0.52638006  0.25569788  0.50719993     0.16100
C726        C  0.52590761  0.22690069  0.50423418    -0.18400
C727        C  0.54379773  0.27078699  0.47559863    -0.20200
C728        C  0.54438548  0.29937895  0.47920635    -0.12800
C729        C  0.52878519  0.31353573  0.51650045     0.03900
C730        C  0.51077289  0.29837174  0.54744603    -0.24900
H731        H  0.47481469  0.21505358  0.59006232     0.09000
H732        H  0.47646505  0.26507554  0.59774761     0.12600
H733        H  0.53979297  0.21614421  0.47842349     0.12500
H734        H  0.55674784  0.26048949  0.44756471     0.12300
H735        H  0.55729547  0.31047962  0.45301049     0.12800
H736        H  0.49795792  0.30900527  0.57530202     0.14800
C737        C  0.50671280  0.94266526  0.55575938    -0.05200
C738        C  0.48017047  0.95382931  0.55946744    -0.05200
C739        C  0.47573131  0.98224196  0.55623421    -0.23300
C740        C  0.49767864  0.00007527  0.54860726     0.18900
C741        C  0.52433010  0.98894601  0.54514358     0.16100
C742        C  0.52863344  0.96060363  0.54876947    -0.18400
C743        C  0.54648019  0.00629831  0.53816954    -0.20200
C744        C  0.54246805  0.03445392  0.53458036    -0.12800
C745        C  0.51617546  0.04621744  0.53770128     0.03900
C746        C  0.49367441  0.02873014  0.54465553    -0.24900
H747        H  0.46282941  0.94062300  0.56486706     0.09000
H748        H  0.45511897  0.99024519  0.55958823     0.12600
H749        H  0.54925960  0.95253023  0.54593713     0.12500
H750        H  0.56705711  0.99808512  0.53560346     0.12300
H751        H  0.56024375  0.04708534  0.52941875     0.12800
H752        H  0.47326211  0.03733448  0.54742642     0.14800
C753        C  0.53088834  0.31583651  0.00176042    -0.05200
C754        C  0.51055185  0.30306549  0.97221480    -0.05200
C755        C  0.50711012  0.27465392  0.97324841    -0.23300
C756        C  0.52433200  0.25810360  0.00295807     0.18900
C757        C  0.54530476  0.27051172  0.03175567     0.16100
C758        C  0.54817595  0.29917809  0.03161473    -0.18400
C759        C  0.56320455  0.25400208  0.06001793    -0.20200
C760        C  0.56048686  0.22556522  0.05963781    -0.12800
C761        C  0.53943364  0.21289352  0.03203557     0.03900
C762        C  0.52120396  0.22939640  0.00394405    -0.24900
H763        H  0.49724813  0.31513609  0.94803603     0.09000
H764        H  0.49110040  0.26560732  0.95038001     0.12600
H765        H  0.56388928  0.30854185  0.05478430     0.12500
H766        H  0.57951884  0.26306482  0.08208272     0.12300
H767        H  0.57481149  0.21338356  0.08151153     0.12800
H768        H  0.50514126  0.21988101  0.98186916     0.14800
C769        C  0.53721699  0.12817421  0.87840179    -0.05200
C770        C  0.56184328  0.12667363  0.85060837    -0.05200
C771        C  0.56182124  0.12665057  0.79684768    -0.23300
C772        C  0.53716707  0.12811317  0.76977960     0.18900
C773        C  0.51230008  0.12941272  0.79728765     0.16100
C774        C  0.51247364  0.12948045  0.85119879    -0.18400
C775        C  0.48761876  0.13056349  0.77043223    -0.20200
C776        C  0.48751466  0.13053247  0.71681226    -0.12800
C777        C  0.51208240  0.12953029  0.68881230     0.03900
C778        C  0.53692534  0.12827349  0.71575428    -0.24900
H779        H  0.58118665  0.12558023  0.87042385     0.09000
H780        H  0.58110272  0.12553011  0.77644973     0.12600
H781        H  0.49327173  0.13063260  0.87190448     0.12500
H782        H  0.46837462  0.13132999  0.79092186     0.12300
H783        H  0.46811627  0.13125905  0.69718759     0.12800
H784        H  0.55605000  0.12729553  0.69479286     0.14800
C785        C  0.50917812  0.12954178  0.37855694    -0.05200
C786        C  0.48479408  0.12606505  0.35106730    -0.05200
C787        C  0.48478312  0.12634327  0.29727233    -0.23300
C788        C  0.50916813  0.13008347  0.26989221     0.18900
C789        C  0.53369005  0.13397041  0.29714630     0.16100
C790        C  0.53352582  0.13375190  0.35105309    -0.18400
C791        C  0.55810004  0.13770809  0.27005751    -0.20200
C792        C  0.55838837  0.13707131  0.21643318    -0.12800
C793        C  0.53424262  0.13293677  0.18865277     0.03900
C794        C  0.50955606  0.12973140  0.21582835    -0.24900
H795        H  0.46571725  0.12291894  0.37113196     0.09000
H796        H  0.46573373  0.12343445  0.27710054     0.12600
H797        H  0.55247251  0.13672266  0.37154750     0.12500
H798        H  0.57706358  0.14086031  0.29036869     0.12300
H799        H  0.57761639  0.13983234  0.19667247     0.12800
H800        H  0.49073483  0.12656453  0.19502971     0.14800
C801        C  0.53629698  0.04711287  0.03916335    -0.05200
C802        C  0.56152591  0.03306735  0.03690381    -0.05200
C803        C  0.56301324  0.00463451  0.04131793    -0.23300
C804        C  0.53930141  0.98935852  0.04815980     0.18900
C805        C  0.51373336  0.00296569  0.05013467     0.16100
C806        C  0.51234407  0.03173563  0.04549127    -0.18400
C807        C  0.49005029  0.98750275  0.05689450    -0.20200
C808        C  0.49167049  0.95898034  0.06147572    -0.12800
C809        C  0.51699965  0.94516628  0.05937028     0.03900
C810        C  0.54079122  0.96070023  0.05284978    -0.24900
H811        H  0.58035730  0.04410630  0.03193784     0.09000
H812        H  0.58280408  0.99459490  0.03955271     0.12600
H813        H  0.49272251  0.04210300  0.04735493     0.12500
H814        H  0.47021605  0.99745349  0.05844256     0.12300
H815        H  0.47296841  0.94769861  0.06622592     0.12800
H816        H  0.56051030  0.95050881  0.05099406     0.14800
C817        C  0.27607345  0.59903599  0.52921234    -0.05200
C818        C  0.25904380  0.61819159  0.55428687    -0.05200
C819        C  0.23067267  0.61494578  0.55432331    -0.23300
C820        C  0.21888346  0.59212846  0.53032038     0.18900
C821        C  0.23585753  0.57255799  0.50556236     0.16100
C822        C  0.26418132  0.57641496  0.50434184    -0.18400
C823        C  0.22425910  0.54923667  0.48313158    -0.20200
C824        C  0.19604555  0.54533877  0.48510860    -0.12800
C825        C  0.17886251  0.56495873  0.50850969     0.03900
C826        C  0.19047290  0.58838349  0.53102965    -0.24900
H827        H  0.26774489  0.63548854  0.57430849     0.09000
H828        H  0.21797815  0.63004662  0.57385632     0.12600
H829        H  0.27716246  0.56146118  0.48498056     0.12500
H830        H  0.23702213  0.53392622  0.46430908     0.12300
H831        H  0.18758009  0.52723216  0.46740587     0.12800
H832        H  0.17741985  0.60350627  0.54970668     0.14800
C833        C  0.28341677  0.60053699  0.01187204    -0.05200
C834        C  0.26898719  0.62295754  0.99170088    -0.05200
C835        C  0.24047950  0.62280438  0.98876610    -0.23300
C836        C  0.22576043  0.59987634  0.00448934     0.18900
C837        C  0.23992618  0.57701559  0.02417913     0.16100
C838        C  0.26850236  0.57775550  0.02890553    -0.18400
C839        C  0.22528361  0.55365451  0.03795876    -0.20200
C840        C  0.19686093  0.55303695  0.03260564    -0.12800
C841        C  0.18243150  0.57596572  0.01442080     0.03900
C842        C  0.19715173  0.59934113  0.00035992    -0.24900
H843        H  0.27981688  0.64046740  0.97724131     0.09000
H844        H  0.22997010  0.64042863  0.97311925     0.12600
H845        H  0.27925995  0.56029308  0.04468557     0.12500
H846        H  0.23582362  0.53579931  0.05263783     0.12300
H847        H  0.18609782  0.53478890  0.04371166     0.12800
H848        H  0.18636063  0.61706292  0.98572308     0.14800
C849        C  0.09824740  0.57839087  0.85482115    -0.05200
C850        C  0.08933712  0.60222562  0.82980335    -0.05200
C851        C  0.08682090  0.60273097  0.77634183    -0.23300
C852        C  0.09356195  0.57952210  0.74681377     0.18900
C853        C  0.10279363  0.55557760  0.77163452     0.16100
C854        C  0.10475544  0.55504387  0.82534349    -0.18400
C855        C  0.11017526  0.53257673  0.74232311    -0.20200
C856        C  0.10798161  0.53299708  0.68899367    -0.12800
C857        C  0.09875711  0.55659101  0.66366962     0.03900
C858        C  0.09155684  0.57989231  0.69295230    -0.24900
H859        H  0.08392995  0.62042231  0.85167164     0.09000
H860        H  0.07973017  0.62130068  0.75811340     0.12600
H861        H  0.11163467  0.53653357  0.84411946     0.12500
H862        H  0.11770079  0.51420674  0.76064614     0.12300
H863        H  0.11385685  0.51480994  0.66751468     0.12800
H864        H  0.08450796  0.59826289  0.67394824     0.14800
C865        C  0.09575687  0.57530632  0.16375789    -0.05200
C866        C  0.08392691  0.59780336  0.18964974    -0.05200
C867        C  0.08124867  0.59792192  0.24301215    -0.23300
C868        C  0.09079161  0.57572769  0.27166383     0.18900
C869        C  0.10277068  0.55294308  0.24613444     0.16100
C870        C  0.10485879  0.55270149  0.19225855    -0.18400
C871        C  0.11267336  0.53096014  0.27503705    -0.20200
C872        C  0.11053102  0.53145093  0.32859400    -0.12800
C873        C  0.09873757  0.55407587  0.35432257     0.03900
C874        C  0.08885313  0.57614559  0.32545919    -0.24900
H875        H  0.07644038  0.61527873  0.16848639     0.09000
H876        H  0.07192991  0.61550529  0.26190826     0.12600
H877        H  0.11397477  0.53520774  0.17266194     0.12500
H878        H  0.12204804  0.51336817  0.25625162     0.12300
H879        H  0.11844515  0.51422430  0.34995107     0.12800
H880        H  0.07968882  0.59367368  0.34484635     0.14800
C881        C  0.64515708  0.57684448  0.51171438    -0.05200
C882        C  0.65685341  0.58997569  0.55446436    -0.05200
C883        C  0.68512273  0.59021177  0.56136887    -0.23300
C884        C  0.70243524  0.57653473  0.52653701     0.18900
C885        C  0.69104873  0.56257613  0.48409604     0.16100
C886        C  0.66263293  0.56363196  0.47596929    -0.18400
C887        C  0.70831090  0.54765175  0.45079405    -0.20200
C888        C  0.73652379  0.54688758  0.45908765    -0.12800
C889        C  0.74807088  0.56170907  0.49978818     0.03900
C890        C  0.73091853  0.57655127  0.53342959    -0.24900
H891        H  0.64396870  0.60014506  0.58275196     0.09000
H892        H  0.69341529  0.60079138  0.59441078     0.12600
H893        H  0.65411048  0.55391411  0.44221342     0.12500
H894        H  0.69999364  0.53650137  0.41844532     0.12300
H895        H  0.74947785  0.53539554  0.43271499     0.12800
H896        H  0.73974764  0.58783921  0.56515392     0.14800
C897        C  0.91249792  0.56786941  0.50976283    -0.05200
C898        C  0.92542712  0.59236772  0.49661531    -0.05200
C899        C  0.95383652  0.59393045  0.49485103    -0.23300
C900        C  0.97002393  0.57103997  0.50633511     0.18900
C901        C  0.95746082  0.54645657  0.52100095     0.16100
C902        C  0.92875995  0.54502020  0.52274371    -0.18400
C903        C  0.97387633  0.52372649  0.53309595    -0.20200
C904        C  0.00236520  0.52511478  0.52924885    -0.12800
C905        C  0.01501830  0.54938156  0.51392185     0.03900
C906        C  0.99857280  0.57236515  0.50306322    -0.24900
H907        H  0.91354229  0.61033444  0.48676530     0.09000
H908        H  0.96314840  0.61301176  0.48392485     0.12600
H909        H  0.91913231  0.52611840  0.53379082     0.12500
H910        H  0.96467578  0.50479576  0.54515185     0.12300
H911        H  0.01449893  0.50727615  0.53882537     0.12800
H912        H  0.00796531  0.59131990  0.49156548     0.14800
C913        C  0.65046343  0.58082347  0.96891733    -0.05200
C914        C  0.66473856  0.59475489  0.93047151    -0.05200
C915        C  0.69331366  0.59475550  0.92993656    -0.23300
C916        C  0.70807844  0.57987661  0.96659510     0.18900
C917        C  0.69381392  0.56445804  0.00347227     0.16100
C918        C  0.66520215  0.56543930  0.00494170    -0.18400
C919        C  0.70840108  0.54832772  0.03834143    -0.20200
C920        C  0.73687991  0.54773588  0.03721027    -0.12800
C921        C  0.75129174  0.56387305  0.00229022     0.03900
C922        C  0.73679534  0.57995602  0.96694548    -0.24900
H923        H  0.65372515  0.60608785  0.90150389     0.09000
H924        H  0.70385129  0.60628526  0.90076011     0.12600
H925        H  0.65427407  0.55422833  0.03411525     0.12500
H926        H  0.69778579  0.53612650  0.06642663     0.12300
H927        H  0.74772810  0.53513694  0.06454932     0.12800
H928        H  0.74785419  0.59207197  0.93930317     0.14800
C929        C  0.82909874  0.56935393  0.66199898    -0.05200
C930        C  0.81972047  0.59343907  0.68628010    -0.05200
C931        C  0.81916682  0.59558006  0.73968447    -0.23300
C932        C  0.82814460  0.57372272  0.76983300     0.18900
C933        C  0.83782579  0.54943233  0.74601865     0.16100
C934        C  0.83823665  0.54739086  0.69217518    -0.18400
C935        C  0.84677653  0.52761931  0.77655536    -0.20200
C936        C  0.84577806  0.52973896  0.83016163    -0.12800
C937        C  0.83632952  0.55390946  0.85400750     0.03900
C938        C  0.82758993  0.57583111  0.82345154    -0.24900
H939        H  0.81252949  0.61060728  0.66392390     0.09000
H940        H  0.81167867  0.61433450  0.75740627     0.12600
H941        H  0.84578084  0.52882225  0.67382891     0.12500
H942        H  0.85437998  0.50887456  0.75899813     0.12300
H943        H  0.85270700  0.51262403  0.85294767     0.12800
H944        H  0.82007493  0.59452604  0.84141922     0.14800
C945        C  0.82733277  0.55979566  0.35378100    -0.05200
C946        C  0.81548357  0.53660190  0.33141726    -0.05200
C947        C  0.81233686  0.53461010  0.27833080    -0.23300
C948        C  0.82174564  0.55540466  0.24645791     0.18900
C949        C  0.83300664  0.57922005  0.26857284     0.16100
C950        C  0.83553636  0.58137277  0.32217441    -0.18400
C951        C  0.84176984  0.60031626  0.23662303    -0.20200
C952        C  0.84027753  0.59743043  0.18327770    -0.12800
C953        C  0.83021173  0.57332362  0.16094404     0.03900
C954        C  0.82047580  0.55257646  0.19287085    -0.24900
H955        H  0.80818123  0.52015869  0.35517497     0.09000
H956        H  0.80268521  0.51671861  0.26218712     0.12600
H957        H  0.84431902  0.59954348  0.33917736     0.12500
H958        H  0.85019099  0.61884426  0.25284048     0.12300
H959        H  0.84777341  0.61376685  0.15944439     0.12800
H960        H  0.81222769  0.53410787  0.17602855     0.14800
C961        C  0.91558563  0.56109336  0.01619946    -0.05200
C962        C  0.92888730  0.53815672  0.03708644    -0.05200
C963        C  0.95735407  0.53677480  0.03961802    -0.23300
C964        C  0.97316214  0.55828990  0.02118423     0.18900
C965        C  0.96003882  0.58171361  0.00102187     0.16100
C966        C  0.93138587  0.58298299  0.99867618    -0.18400
C967        C  0.97581848  0.60346569  0.98347817    -0.20200
C968        C  0.00427089  0.60207015  0.98593593    -0.12800
C969        C  0.01759016  0.57873973  0.00522681     0.03900
C970        C  0.00183597  0.55680680  0.02264262    -0.24900
H971        H  0.91725029  0.52112769  0.05138166     0.09000
H972        H  0.96699705  0.51872320  0.05551157     0.12600
H973        H  0.92143551  0.60084771  0.98266045     0.12500
H974        H  0.96616214  0.62160091  0.96794723     0.12300
H975        H  0.01592048  0.61919845  0.97208642     0.12800
H976        H  0.01185153  0.53879837  0.03796459     0.14800
C977        C  0.35318315  0.22416010  0.49297617    -0.05200
C978        C  0.32912055  0.23354505  0.51721774    -0.05200
C979        C  0.32455038  0.26144858  0.52598741    -0.23300
C980        C  0.34371138  0.28059337  0.50974325     0.18900
C981        C  0.36756827  0.27140469  0.48380012     0.16100
C982        C  0.37235517  0.24327641  0.47627866    -0.18400
C983        C  0.38627603  0.29051038  0.46586006    -0.20200
C984        C  0.38165901  0.31836727  0.47422656    -0.12800
C985        C  0.35860981  0.32779265  0.50184399     0.03900
C986        C  0.33957104  0.30870226  0.51934398    -0.24900
H987        H  0.31400003  0.21920755  0.53037119     0.09000
H988        H  0.30604233  0.26803728  0.54552042     0.12600
H989        H  0.39080345  0.23629457  0.45694489     0.12500
H990        H  0.40452657  0.28392559  0.44546392     0.12300
H991        H  0.39650046  0.33271192  0.45996489     0.12800
H992        H  0.32184898  0.31568523  0.54093153     0.14800
C993        C  0.38577705  0.22975676  0.96153708    -0.05200
C994        C  0.40188261  0.24519177  0.99510750    -0.05200
C995        C  0.40058533  0.27374787  0.99464826    -0.23300
C996        C  0.38382128  0.28739586  0.95940402     0.18900
C997        C  0.36877124  0.27216801  0.92322890     0.16100
C998        C  0.36933253  0.24336489  0.92529046    -0.18400
C999        C  0.35368817  0.28609879  0.88559121    -0.20200
C1000       C  0.35341291  0.31479545  0.88415831    -0.12800
C1001       C  0.36692501  0.33009864  0.92206856     0.03900
C1002       C  0.38208294  0.31604435  0.95956671    -0.24900
H1003       H  0.41472018  0.23511168  0.02307123     0.09000
H1004       H  0.41266488  0.28517443  0.02197781     0.12600
H1005       H  0.35721325  0.23153616  0.89860368     0.12500
H1006       H  0.34259527  0.27480114  0.85662047     0.12300
H1007       H  0.34293256  0.32495321  0.85309570     0.12800
H1008       H  0.39317385  0.32761524  0.98822722     0.14800
C1009       C  0.36686065  0.13610892  0.62903689    -0.05200
C1010       C  0.34365826  0.12647640  0.65485126    -0.05200
C1011       C  0.34291265  0.12529514  0.70836554    -0.23300
C1012       C  0.36527366  0.13395052  0.73726910     0.18900
C1013       C  0.38888849  0.14333121  0.71183765     0.16100
C1014       C  0.38962163  0.14417884  0.65791801    -0.18400
C1015       C  0.41115842  0.15219618  0.74083823    -0.20200
C1016       C  0.41002834  0.15185172  0.79440833    -0.12800
C1017       C  0.38653796  0.14286242  0.82005861     0.03900
C1018       C  0.36422070  0.13381586  0.79115918    -0.24900
H1019       H  0.32590312  0.11995275  0.63362472     0.09000
H1020       H  0.32468501  0.11795300  0.72715214     0.12600
H1021       H  0.40763092  0.15169293  0.63859354     0.12500
H1022       H  0.42927058  0.15981902  0.72213510     0.12300
H1023       H  0.42734497  0.15928638  0.81586030     0.12800
H1024       H  0.34603005  0.12679021  0.81055723     0.14800
C1025       C  0.36292585  0.14889629  0.32041731    -0.05200
C1026       C  0.33849802  0.14298659  0.29461505    -0.05200
C1027       C  0.33725900  0.14331262  0.24104759    -0.23300
C1028       C  0.36042625  0.14957177  0.21199734     0.18900
C1029       C  0.38504001  0.15589901  0.23739698     0.16100
C1030       C  0.38614732  0.15555471  0.29136200    -0.18400
C1031       C  0.40824903  0.16201614  0.20831869    -0.20200
C1032       C  0.40728371  0.16118040  0.15470470    -0.12800
C1033       C  0.38304529  0.15445828  0.12894137     0.03900
C1034       C  0.35951083  0.14910646  0.15800619    -0.24900
H1035       H  0.32030283  0.13771054  0.31585070     0.09000
H1036       H  0.31822307  0.13837163  0.22233192     0.12600
H1037       H  0.40512582  0.16019253  0.31060888     0.12500
H1038       H  0.42727741  0.16702968  0.22701407     0.12300
H1039       H  0.42566475  0.16564271  0.13332151     0.12800
H1040       H  0.34072212  0.14382528  0.13870531     0.14800
C1041       C  0.39957582  0.79671821  0.47452811    -0.05200
C1042       C  0.41155317  0.78518071  0.51820349    -0.05200
C1043       C  0.40898020  0.75729056  0.52822732    -0.23300
C1044       C  0.39498539  0.74024879  0.49393755     0.18900
C1045       C  0.38357172  0.75148135  0.44889880     0.16100
C1046       C  0.38540590  0.77980998  0.44002109    -0.18400
C1047       C  0.37073748  0.73410603  0.41348785    -0.20200
C1048       C  0.36917720  0.70597366  0.42264451    -0.12800
C1049       C  0.37949474  0.69478168  0.46821730     0.03900
C1050       C  0.39241802  0.71214290  0.50372920    -0.24900
H1051       H  0.42227411  0.79798137  0.54542481     0.09000
H1052       H  0.41800538  0.74903718  0.56276043     0.12600
H1053       H  0.37615942  0.78864758  0.40617819     0.12500
H1054       H  0.36220673  0.74221554  0.37840079     0.12300
H1055       H  0.35974907  0.69288144  0.39423991     0.12800
H1056       H  0.40086731  0.70358982  0.53855445     0.14800
C1057       C  0.40367552  0.96111317  0.45897058    -0.05200
C1058       C  0.42796643  0.97613650  0.46045187    -0.05200
C1059       C  0.42721708  0.00483849  0.46041761    -0.23300
C1060       C  0.40214781  0.01897481  0.45837377     0.18900
C1061       C  0.37782190  0.00386484  0.45462851     0.16100
C1062       C  0.37874434  0.97528435  0.45492236    -0.18400
C1063       C  0.35271622  0.01748139  0.45162139    -0.20200
C1064       C  0.35145236  0.04584541  0.45400016    -0.12800
C1065       C  0.37525054  0.06140340  0.45944901     0.03900
C1066       C  0.40076085  0.04779835  0.46076428    -0.24900
H1067       H  0.44750867  0.96571263  0.46241881     0.09000
H1068       H  0.44617995  0.01593449  0.46263827     0.12600
H1069       H  0.35982526  0.96408257  0.45272379     0.12500
H1070       H  0.33392600  0.00616037  0.44823005     0.12300
H1071       H  0.33154801  0.05557983  0.45224781     0.12800
H1072       H  0.41930947  0.05947346  0.46460172     0.14800
C1073       C  0.38955985  0.69587532  0.02209037    -0.05200
C1074       C  0.41153679  0.70994014  0.04445406    -0.05200
C1075       C  0.41409424  0.73830928  0.03918303    -0.23300
C1076       C  0.39425744  0.75353762  0.01280370     0.18900
C1077       C  0.37134892  0.73997945  0.99252931     0.16100
C1078       C  0.36936965  0.71133714  0.99654349    -0.18400
C1079       C  0.35089441  0.75528825  0.96807302    -0.20200
C1080       C  0.35329700  0.78363413  0.96286018    -0.12800
C1081       C  0.37648588  0.79729937  0.98088622     0.03900
C1082       C  0.39690186  0.78202224  0.00621565    -0.24900
H1083       H  0.42707380  0.69886235  0.06543666     0.09000
H1084       H  0.43163912  0.74832594  0.05571609     0.12600
H1085       H  0.35229937  0.70101423  0.97894876     0.12500
H1086       H  0.33301060  0.74531602  0.95282067     0.12300
H1087       H  0.33719472  0.79483713  0.94365823     0.12800
H1088       H  0.41466570  0.79232374  0.02125497     0.14800
C1089       C  0.38281989  0.87449846  0.81072691    -0.05200
C1090       C  0.35811733  0.86980483  0.78494489    -0.05200
C1091       C  0.35699422  0.86979189  0.73134820    -0.23300
C1092       C  0.38052133  0.87470201  0.70232904     0.18900
C1093       C  0.40551704  0.87930785  0.72775477     0.16100
C1094       C  0.40655783  0.87901637  0.78170129    -0.18400
C1095       C  0.42901592  0.88435704  0.69877897    -0.20200
C1096       C  0.42784752  0.88464304  0.64522409    -0.12800
C1097       C  0.40314270  0.88001694  0.61938245     0.03900
C1098       C  0.37946005  0.87514646  0.64837745    -0.24900
H1099       H  0.33953270  0.86617598  0.80629577     0.09000
H1100       H  0.33766366  0.86614498  0.71262369     0.12600
H1101       H  0.42568670  0.88288117  0.80102744     0.12500
H1102       H  0.44831476  0.88811550  0.71752250     0.12300
H1103       H  0.44639167  0.88857665  0.62400546     0.12800
H1104       H  0.36029397  0.87145948  0.62905464     0.14800
C1105       C  0.38204783  0.88412936  0.11971869    -0.05200
C1106       C  0.35694304  0.88228578  0.14573364    -0.05200
C1107       C  0.35595943  0.88134545  0.19921386    -0.23300
C1108       C  0.38005841  0.88232044  0.22776716     0.18900
C1109       C  0.40535701  0.88502655  0.20214947     0.16100
C1110       C  0.40621036  0.88590391  0.14832657    -0.18400
C1111       C  0.42940213  0.88647007  0.23081167    -0.20200
C1112       C  0.42844906  0.88464888  0.28423495    -0.12800
C1113       C  0.40351256  0.88099228  0.31004370     0.03900
C1114       C  0.37928861  0.88029627  0.28145097    -0.24900
H1115       H  0.33799324  0.88096335  0.12470072     0.09000
H1116       H  0.33637374  0.87946436  0.21818656     0.12600
H1117       H  0.42567919  0.88757291  0.12879860     0.12500
H1118       H  0.44894837  0.88892756  0.21194506     0.12300
H1119       H  0.44730063  0.88628939  0.30539448     0.12800
H1120       H  0.35986476  0.87794982  0.30083693     0.14800
C1121       C  0.37941870  0.06508127  0.98191169    -0.05200
C1122       C  0.35478633  0.05306632  0.99736016    -0.05200
C1123       C  0.35156405  0.02470930  0.99593694    -0.23300
C1124       C  0.37284254  0.00759247  0.97866632     0.18900
C1125       C  0.39786220  0.01924828  0.96357602     0.16100
C1126       C  0.40106555  0.04789598  0.96551669    -0.18400
C1127       C  0.41915898  0.00200455  0.94657024    -0.20200
C1128       C  0.41580263  0.97359392  0.94498462    -0.12800
C1129       C  0.39098280  0.96173719  0.95980526     0.03900
C1130       C  0.36949898  0.97903116  0.97637515    -0.24900
H1131       H  0.33780333  0.06567738  0.01039774     0.09000
H1132       H  0.33229256  0.01618141  0.00797634     0.12600
H1133       H  0.42011918  0.05679812  0.95319585     0.12500
H1134       H  0.43849635  0.01047027  0.93475976     0.12300
H1135       H  0.43271380  0.96085038  0.93207874     0.12800
H1136       H  0.35033402  0.97025274  0.98841921     0.14800
loop_ 
_geom_bond_atom_site_label_1 
_geom_bond_atom_site_label_2 
_geom_bond_distance 
_geom_bond_site_symmetry_2 
_ccdc_geom_bond_type 
O1           Ni9   1.924       .  S
O1           C11   1.282       .  A
O2           Ni9   1.929       .  S
O2           C12   1.283       .  A
O3           Ni9   1.929       .  S
O3           C13   1.284       .  A
O4           Ni9   1.922   1_554  S
O4           C14   1.283       .  A
O5          Ni10   1.906   1_554  S
O5           C14   1.279       .  A
O6          Ni10   1.912       .  S
O6           C13   1.280       .  A
O7          Ni10   1.932       .  S
O7           C12   1.285       .  A
O8          Ni10   1.933       .  S
O8           C11   1.285       .  A
Ni9         Ni10   2.385       .  S
C11        C1129   1.492       .  S
C12        C1081   1.492       .  S
C13        C1089   1.484       .  S
C14        C1105   1.479       .  S
O15         Ni23   1.927       .  S
O15          C25   1.283       .  A
O16         Ni23   1.930       .  S
O16          C26   1.284       .  A
O17         Ni23   1.912       .  S
O17          C27   1.280       .  A
O18         Ni23   1.909       .  S
O18          C28   1.280       .  A
O19         Ni24   1.930       .  S
O19          C28   1.285       .  A
O20         Ni24   1.921       .  S
O20          C27   1.283       .  A
O21         Ni24   1.919       .  S
O21          C26   1.280       .  A
O22         Ni24   1.913       .  S
O22          C25   1.282       .  A
Ni23        Ni24   2.386       .  S
C25        C1057   1.485       .  S
C26        C1041   1.478       .  S
C27        C1113   1.481       .  S
C28        C1097   1.484       .  S
O29         Ni37   1.915       .  S
O29          C39   1.281       .  A
O30         Ni37   1.919       .  S
O30          C40   1.280       .  A
O31         Ni37   1.925       .  S
O31          C41   1.284       .  A
O32         Ni37   1.933   1_554  S
O32          C42   1.285       .  A
O33         Ni38   1.912   1_554  S
O33          C42   1.280       .  A
O34         Ni38   1.909       .  S
O34          C41   1.279       .  A
O35         Ni38   1.933       .  S
O35          C40   1.285       .  A
O36         Ni38   1.940       .  S
O36          C39   1.286       .  A
Ni37        Ni38   2.385       .  S
C39        C1121   1.491       .  S
C40         C993   1.481       .  S
C41        C1017   1.478       .  S
C42        C1033   1.485       .  S
O43         Ni51   1.904       .  S
O43          C53   1.280       .  A
O44         Ni51   1.909       .  S
O44          C54   1.279       .  A
O45         Ni51   1.915       .  S
O45          C55   1.281       .  A
O46         Ni51   1.912       .  S
O46          C56   1.281       .  A
O47         Ni52   1.927       .  S
O47          C56   1.283       .  A
O48         Ni52   1.925       .  S
O48          C55   1.283       .  A
O49         Ni52   1.930       .  S
O49          C54   1.284       .  A
O50         Ni52   1.934       .  S
O50          C53   1.284       .  A
Ni51        Ni52   2.386       .  S
C53        C1065   1.485       .  S
C54         C977   1.481       .  S
C55        C1025   1.485       .  S
C56        C1009   1.483       .  S
O57         Ni65   1.917       .  S
O57          C67   1.282       .  A
O58         Ni65   1.916       .  S
O58          C68   1.281       .  A
O59         Ni65   1.926   1_556  S
O59          C69   1.283       .  A
O60         Ni65   1.920       .  S
O60          C70   1.283       .  A
O61         Ni66   1.915       .  S
O61          C70   1.281       .  A
O62         Ni66   1.906   1_556  S
O62          C69   1.280       .  A
O63         Ni66   1.926   1_556  S
O63          C68   1.283   1_556  A
O64         Ni66   1.927       .  S
O64          C67   1.284       .  A
Ni65        Ni66   2.388       .  S
C67         C961   1.485       .  S
C68         C921   1.476       .  S
C69         C937   1.478       .  S
C70         C953   1.478       .  S
O71         Ni79   1.928       .  S
O71          C81   1.283       .  A
O72         Ni79   1.927       .  S
O72          C82   1.283       .  A
O73         Ni79   1.915       .  S
O73          C83   1.282       .  A
O74         Ni79   1.919       .  S
O74          C84   1.282       .  A
O75         Ni80   1.913       .  S
O75          C84   1.281       .  A
O76         Ni80   1.918       .  S
O76          C83   1.281       .  A
O77         Ni80   1.923       .  S
O77          C82   1.282       .  A
O78         Ni80   1.921       .  S
O78          C81   1.283       .  A
Ni79        Ni80   2.388       .  S
C81         C897   1.489       .  S
C82         C889   1.478       .  S
C83         C945   1.476       .  S
C84         C929   1.478       .  S
O85         Ni93   1.914       .  S
O85          C95   1.281       .  A
O86         Ni93   1.922       .  S
O86          C96   1.282       .  A
O87         Ni93   1.915   1_556  S
O87          C97   1.281       .  A
O88         Ni93   1.918       .  S
O88          C98   1.282       .  A
O89         Ni94   1.919       .  S
O89          C98   1.281       .  A
O90         Ni94   1.923   1_556  S
O90          C97   1.283       .  A
O91         Ni94   1.931       .  S
O91          C96   1.284       .  A
O92         Ni94   1.931       .  S
O92          C95   1.284       .  A
Ni93        Ni94   2.387       .  S
C95         C969   1.483       .  S
C96         C841   1.489       .  S
C97         C849   1.481       .  S
C98         C865   1.479       .  S
O99        Ni107   1.912       .  S
O99         C109   1.280       .  A
O100       Ni107   1.915       .  S
O100        C110   1.280       .  A
O101       Ni107   1.927       .  S
O101        C111   1.284       .  A
O102       Ni107   1.925       .  S
O102        C112   1.283       .  A
O103       Ni108   1.909       .  S
O103        C112   1.280       .  A
O104       Ni108   1.912       .  S
O104        C111   1.279       .  A
O105       Ni108   1.931       .  S
O105        C110   1.285       .  A
O106       Ni108   1.934       .  S
O106        C109   1.285       .  A
Ni107      Ni108   2.386       .  S
C109        C905   1.487       .  S
C110        C825   1.483       .  S
C111        C873   1.481       .  S
C112        C857   1.481       .  S
O113       Ni121   1.944       .  S
O113        C123   1.287       .  A
O114       Ni121   1.945       .  S
O114        C124   1.287       .  A
O115       Ni121   1.915   1_556  S
O115        C125   1.281       .  A
O116       Ni121   1.919       .  S
O116        C126   1.281       .  A
O117       Ni122   1.924       .  S
O117        C126   1.284       .  A
O118       Ni122   1.928   1_556  S
O118        C125   1.284       .  A
O119       Ni122   1.916       .  S
O119        C124   1.281       .  A
O120       Ni122   1.917       .  S
O120        C123   1.281       .  A
Ni121      Ni122   2.383       .  S
C123        C801   1.497       .  S
C124        C761   1.491       .  S
C125        C769   1.487       .  S
C126        C793   1.486       .  S
O127       Ni135   1.943       .  S
O127        C137   1.285       .  A
O128       Ni135   1.940       .  S
O128        C138   1.286       .  A
O129       Ni135   1.927       .  S
O129        C139   1.283       .  A
O130       Ni135   1.918       .  S
O130        C140   1.282       .  A
O131       Ni136   1.923       .  S
O131        C140   1.282       .  A
O132       Ni136   1.917       .  S
O132        C139   1.282       .  A
O133       Ni136   1.920       .  S
O133        C138   1.281       .  A
O134       Ni136   1.917       .  S
O134        C137   1.283       .  A
Ni135      Ni136   2.384       .  S
C137        C745   1.497       .  S
C138        C721   1.488       .  S
C139        C785   1.488       .  S
C140        C777   1.486       .  S
O141       Ni149   1.926       .  S
O141        C151   1.283       .  A
O142       Ni149   1.924       .  S
O142        C152   1.282       .  A
O143       Ni149   1.913   1_556  S
O143        C153   1.281       .  A
O144       Ni149   1.911       .  S
O144        C154   1.280       .  A
O145       Ni150   1.919       .  S
O145        C154   1.282       .  A
O146       Ni150   1.914   1_556  S
O146        C153   1.281       .  A
O147       Ni150   1.925       .  S
O147        C152   1.283       .  A
O148       Ni150   1.931       .  S
O148        C151   1.285       .  A
Ni149      Ni150   2.386       .  S
C151        C809   1.495       .  S
C152        C681   1.483       .  S
C153        C689   1.477       .  S
C154        C713   1.478       .  S
O155       Ni163   1.919       .  S
O155        C165   1.283       .  A
O156       Ni163   1.921       .  S
O156        C166   1.281       .  A
O157       Ni163   1.919       .  S
O157        C167   1.283       .  A
O158       Ni163   1.915       .  S
O158        C168   1.282       .  A
O159       Ni164   1.913       .  S
O159        C168   1.281       .  A
O160       Ni164   1.908       .  S
O160        C167   1.280       .  A
O161       Ni164   1.932       .  S
O161        C166   1.285       .  A
O162       Ni164   1.937       .  S
O162        C165   1.285       .  A
Ni163      Ni164   2.386       .  S
C165        C737   1.495       .  S
C166        C657   1.485       .  S
C167        C705   1.478       .  S
C168        C697   1.478       .  S
N169        C174   1.360       .  A
N169        C173   1.359       .  A
N169        H201   1.042       .  S
N170        C177   1.357       .  A
N170        C178   1.355       .  A
N171        C176   1.360       .  A
N171        C175   1.357       .  A
N171        H202   1.038       .  S
N172        C179   1.351   1_556  A
N172        C180   1.353       .  A
C173        C181   1.387       .  A
C173        C189   1.429       .  A
C174        C190   1.422       .  A
C174        C182   1.380       .  A
C175        C183   1.387       .  A
C175        C192   1.425       .  A
C176        C191   1.429       .  A
C176        C184   1.387       .  A
C177        C189   1.421       .  A
C177        C185   1.385       .  A
C178        C192   1.422       .  A
C178        C186   1.387       .  A
C179        C187   1.387       .  A
C179        C190   1.416   1_554  A
C180        C188   1.386   1_556  A
C180        C191   1.416       .  A
C181        C182   1.369       .  A
C181        H193   1.065       .  S
C182        H194   1.081       .  S
C183        C184   1.376       .  A
C183        H195   1.078       .  S
C184        H196   1.081       .  S
C185        C186   1.368       .  A
C185        H197   1.082       .  S
C186        H198   1.082       .  S
C187        C188   1.376       .  A
C187        H199   1.082       .  S
C188        H200   1.082       .  S
C189        C325   1.527       .  S
C190        C258   1.517   1_556  S
C191        C649   1.507       .  S
C192       C1001   1.503       .  S
N203        C208   1.357       .  A
N203        C207   1.353       .  A
N203        H235   1.039       .  S
N204        C211   1.356       .  A
N204        C212   1.357       .  A
N205        C210   1.359       .  A
N205        C209   1.356       .  A
N205        H236   1.038       .  S
N206        C213   1.349       .  A
N206        C214   1.347       .  A
C207        C215   1.389       .  A
C207        C223   1.419       .  A
C208        C224   1.417       .  A
C208        C216   1.385       .  A
C209        C217   1.388       .  A
C209        C226   1.425       .  A
C210        C225   1.421       .  A
C210        C218   1.386       .  A
C211        C223   1.426       .  A
C211        C219   1.385       .  A
C212        C226   1.426       .  A
C212        C220   1.388       .  A
C213        C221   1.386       .  A
C213        C224   1.411       .  A
C214        C222   1.386       .  A
C214        C225   1.408       .  A
C215        C216   1.375       .  A
C215        H227   1.082       .  S
C216        H228   1.082       .  S
C217        C218   1.377       .  A
C217        H229   1.082       .  S
C218        H230   1.081       .  S
C219        C220   1.370       .  A
C219        H231   1.081       .  S
C220        H232   1.077       .  S
C221        C222   1.373       .  A
C221        H233   1.082       .  S
C222        H234   1.083       .  S
C223        C292   1.512       .  S
C224        C360   1.535       .  S
C225        C985   1.496       .  S
C226        C633   1.508       .  S
N237        C242   1.353       .  A
N237        C241   1.350       .  A
N237        H269   1.043   1_554  S
N238        C245   1.355       .  A
N238        C246   1.355       .  A
N239        C244   1.357       .  A
N239        C243   1.355       .  A
N239        H270   1.042   1_554  S
N240        C247   1.352   1_554  A
N240        C248   1.348   1_554  A
C241        C249   1.388       .  A
C241        C257   1.418       .  A
C242        C258   1.420       .  A
C242        C250   1.387       .  A
C243        C251   1.387       .  A
C243        C260   1.422       .  A
C244        C259   1.424       .  A
C244        C252   1.388       .  A
C245        C257   1.423       .  A
C245        C253   1.387   1_554  A
C246        C260   1.422       .  A
C246        C254   1.387   1_554  A
C247        C255   1.387       .  A
C247        C258   1.416   1_556  A
C248        C256   1.386       .  A
C248        C259   1.412   1_556  A
C249        C250   1.384       .  A
C249        H261   1.082       .  S
C250        H262   1.082       .  S
C251        C252   1.384       .  A
C251        H263   1.082       .  S
C252        H264   1.082       .  S
C253        C254   1.378       .  A
C253        H265   1.082       .  S
C254        H266   1.082       .  S
C255        C256   1.376       .  A
C255        H267   1.082       .  S
C256        H268   1.082       .  S
C257        C394   1.515       .  S
C259        C833   1.504       .  S
C260       C1073   1.511       .  S
N271        C276   1.355       .  A
N271        C275   1.348       .  A
N271        H303   1.043       .  S
N272        C279   1.358       .  A
N272        C280   1.357       .  A
N273        C278   1.360       .  A
N273        C277   1.356       .  A
N273        H304   1.039       .  S
N274        C281   1.349       .  A
N274        C282   1.344       .  A
C275        C283   1.387       .  A
C275        C291   1.411       .  A
C276        C292   1.416       .  A
C276        C284   1.386       .  A
C277        C285   1.389       .  A
C277        C294   1.427       .  A
C278        C293   1.425       .  A
C278        C286   1.386       .  A
C279        C291   1.424       .  A
C279        C287   1.385       .  A
C280        C294   1.425       .  A
C280        C288   1.389       .  A
C281        C289   1.385       .  A
C281        C292   1.409       .  A
C282        C290   1.388       .  A
C282        C293   1.410       .  A
C283        C284   1.375       .  A
C283        H295   1.078       .  S
C284        H296   1.082       .  S
C285        C286   1.379       .  A
C285        H297   1.080       .  S
C286        H298   1.081       .  S
C287        C288   1.373       .  A
C287        H299   1.082       .  S
C288        H300   1.082       .  S
C289        C290   1.377       .  A
C289        H301   1.082       .  S
C290        H302   1.082       .  S
C291        C427   1.516       .  S
C293        C817   1.498       .  S
C294       C1049   1.500       .  S
N305        C310   1.349       .  A
N305        C309   1.347       .  A
N305        H337   1.046   1_556  S
N306        C313   1.355       .  A
N306        C314   1.352   1_556  A
N307        C312   1.356       .  A
N307        C311   1.355   1_554  A
N307        H338   1.043       .  S
N308        C315   1.352   1_556  A
N308        C316   1.348   1_556  A
C309        C317   1.386       .  A
C309        C325   1.408       .  A
C310        C326   1.410       .  A
C310        C318   1.386       .  A
C311        C319   1.387       .  A
C311        C328   1.423   1_556  A
C312        C327   1.424       .  A
C312        C320   1.388   1_554  A
C313        C325   1.425       .  A
C313        C321   1.389   1_556  A
C314        C328   1.419       .  A
C314        C322   1.386       .  A
C315        C323   1.388       .  A
C315        C326   1.419   1_554  A
C316        C324   1.386       .  A
C316        C327   1.413       .  A
C317        C318   1.391       .  A
C317        H329   1.082       .  S
C318        H330   1.082       .  S
C319        C320   1.385       .  A
C319        H331   1.082       .  S
C320        H332   1.082       .  S
C321        C322   1.382       .  A
C321        H333   1.082       .  S
C322        H334   1.082       .  S
C323        C324   1.380       .  A
C323        H335   1.082       .  S
C324        H336   1.082       .  S
C326        C393   1.523       .  S
C327        C617   1.507       .  S
C328        C753   1.510       .  S
N339        C344   1.350       .  A
N339        C343   1.364       .  A
N339        H371   1.043       .  S
N340        C347   1.351       .  A
N340        C348   1.348       .  A
N341        C346   1.359       .  A
N341        C345   1.360       .  A
N341        H372   1.034       .  S
N342        C349   1.357       .  A
N342        C350   1.358       .  A
C343        C351   1.392       .  A
C343        C359   1.433       .  A
C344        C360   1.418       .  A
C344        C352   1.383       .  A
C345        C353   1.385       .  A
C345        C362   1.428       .  A
C346        C361   1.435       .  A
C346        C354   1.391       .  A
C347        C359   1.414       .  A
C347        C355   1.387       .  A
C348        C362   1.411       .  A
C348        C356   1.386       .  A
C349        C357   1.387       .  A
C349        C360   1.426       .  A
C350        C358   1.387       .  A
C350        C361   1.427       .  A
C351        C352   1.377       .  A
C351        H363   1.076       .  S
C352        H364   1.082       .  S
C353        C354   1.379       .  A
C353        H365   1.080       .  S
C354        H366   1.080       .  S
C355        C356   1.379       .  A
C355        H367   1.082       .  S
C356        H368   1.082       .  S
C357        C358   1.371       .  A
C357        H369   1.082       .  S
C358        H370   1.082       .  S
C359        C428   1.535       .  S
C361        C729   1.512       .  S
C362        C593   1.505       .  S
N373        C378   1.360   1_554  A
N373        C377   1.356   1_554  A
N373        H405   1.043       .  S
N374        C381   1.357       .  A
N374        C382   1.357       .  A
N375        C380   1.359       .  A
N375        C379   1.354   1_554  A
N375        H406   1.038       .  S
N376        C383   1.349       .  A
N376        C384   1.348       .  A
C377        C385   1.386       .  A
C377        C393   1.423       .  A
C378        C394   1.422   1_556  A
C378        C386   1.381       .  A
C379        C387   1.389       .  A
C379        C396   1.422       .  A
C380        C395   1.424       .  A
C380        C388   1.386       .  A
C381        C393   1.423       .  A
C381        C389   1.386       .  A
C382        C396   1.423       .  A
C382        C390   1.388       .  A
C383        C391   1.385       .  A
C383        C394   1.409       .  A
C384        C392   1.387       .  A
C384        C395   1.412       .  A
C385        C386   1.372       .  A
C385        H397   1.069       .  S
C386        H398   1.081       .  S
C387        C388   1.375   1_556  A
C387        H399   1.080       .  S
C388        H400   1.081       .  S
C389        C390   1.371       .  A
C389        H401   1.082       .  S
C390        H402   1.082       .  S
C391        C392   1.374       .  A
C391        H403   1.082       .  S
C392        H404   1.082       .  S
C395        C673   1.499       .  S
C396        C913   1.495       .  S
N407        C412   1.346       .  A
N407        C411   1.354       .  A
N407        H439   1.045       .  S
N408        C415   1.353       .  A
N408        C416   1.349       .  A
N409        C414   1.357       .  A
N409        C413   1.360       .  A
N409        H440   1.042       .  S
N410        C417   1.355       .  A
N410        C418   1.352       .  A
C411        C419   1.382       .  A
C411        C427   1.399       .  A
C412        C428   1.403       .  A
C412        C420   1.387       .  A
C413        C421   1.387       .  A
C413        C430   1.424       .  A
C414        C429   1.426       .  A
C414        C422   1.387       .  A
C415        C427   1.410       .  A
C415        C423   1.384       .  A
C416        C430   1.415       .  A
C416        C424   1.388       .  A
C417        C425   1.383       .  A
C417        C428   1.420       .  A
C418        C426   1.390       .  A
C418        C429   1.424       .  A
C419        C420   1.380       .  A
C419        H431   1.082       .  S
C420        H432   1.082       .  S
C421        C422   1.380       .  A
C421        H433   1.081       .  S
C422        H434   1.082       .  S
C423        C424   1.376       .  A
C423        H435   1.082       .  S
C424        H436   1.082       .  S
C425        C426   1.376       .  A
C425        H437   1.081       .  S
C426        H438   1.080       .  S
C429        C881   1.506       .  S
C430        C665   1.506       .  S
O441       Ni449   1.938       .  S
O441        C451   1.285       .  A
O442       Ni449   1.943       .  S
O442        C452   1.286       .  A
O443       Ni449   1.914       .  S
O443        C453   1.281       .  A
O444       Ni449   1.918   1_554  S
O444        C454   1.282       .  A
O445       Ni450   1.913   1_554  S
O445        C454   1.281       .  A
O446       Ni450   1.919       .  S
O446        C453   1.282       .  A
O447       Ni450   1.922       .  S
O447        C452   1.282       .  A
O448       Ni450   1.921       .  S
O448        C451   1.283       .  A
Ni449      Ni450   2.385       .  S
C451        C577   1.495       .  S
C452        C641   1.494       .  S
C453        C553   1.479       .  S
C454        C561   1.479       .  S
O455       Ni463   1.934       .  S
O455        C465   1.284       .  A
O456       Ni463   1.936       .  S
O456        C466   1.284       .  A
O457       Ni463   1.913       .  S
O457        C467   1.281       .  A
O458       Ni463   1.921       .  S
O458        C468   1.282       .  A
O459       Ni464   1.912       .  S
O459        C468   1.281       .  A
O460       Ni464   1.919       .  S
O460        C467   1.282       .  A
O461       Ni464   1.918       .  S
O461        C466   1.281       .  A
O462       Ni464   1.922       .  S
O462        C465   1.283       .  A
Ni463      Ni464   2.387       .  S
C465        C529   1.492   1_455  S
C466        C625   1.481       .  S
C467        C569   1.479       .  S
C468        C545   1.478       .  S
O469       Ni477   1.938       .  S
O469        C479   1.286       .  A
O470       Ni477   1.938       .  S
O470        C480   1.285       .  A
O471       Ni477   1.921       .  S
O471        C481   1.283       .  A
O472       Ni477   1.917   1_554  S
O472        C482   1.281       .  A
O473       Ni478   1.919   1_554  S
O473        C482   1.282       .  A
O474       Ni478   1.919       .  S
O474        C481   1.281       .  A
O475       Ni478   1.923       .  S
O475        C480   1.283       .  A
O476       Ni478   1.920       .  S
O476        C479   1.282       .  A
Ni477      Ni478   2.385       .  S
C479        C585   1.495       .  S
C480        C609   1.492       .  S
C481        C497   1.484       .  S
C482        C513   1.477       .  S
O483       Ni491   1.931       .  S
O483        C493   1.284       .  A
O484       Ni491   1.931       .  S
O484        C494   1.284       .  A
O485       Ni491   1.919       .  S
O485        C495   1.281       .  A
O486       Ni491   1.908       .  S
O486        C496   1.280       .  A
O487       Ni492   1.926       .  S
O487        C496   1.284       .  A
O488       Ni492   1.924       .  S
O488        C495   1.283       .  A
O489       Ni492   1.932       .  S
O489        C494   1.284       .  A
O490       Ni492   1.926       .  S
O490        C493   1.283       .  A
Ni491      Ni492   2.385       .  S
C493        C537   1.494       .  S
C494        C601   1.491       .  S
C495        C521   1.480       .  S
C496        C505   1.482       .  S
C497        C498   1.406       .  A
C497        C502   1.409       .  A
C498        C499   1.396       .  A
C498        H507   1.083       .  S
C499        C500   1.401       .  A
C499        H508   1.084       .  S
C500        C506   1.402       .  A
C500        C501   1.412       .  A
C501        C503   1.404       .  A
C501        C502   1.407       .  A
C502        H509   1.084       .  S
C503        C504   1.400       .  A
C503        H510   1.083       .  S
C504        C505   1.406       .  A
C504        H511   1.083       .  S
C505        C506   1.407       .  A
C506        H512   1.084       .  S
C513        C514   1.403       .  A
C513        C518   1.407       .  A
C514        C515   1.396       .  A
C514        H523   1.083       .  S
C515        C516   1.402       .  A
C515        H524   1.083       .  S
C516        C522   1.405       .  A
C516        C517   1.414       .  A
C517        C519   1.403       .  A
C517        C518   1.406       .  A
C518        H525   1.084       .  S
C519        C520   1.400       .  A
C519        H526   1.084       .  S
C520        C521   1.405       .  A
C520        H527   1.083       .  S
C521        C522   1.405       .  A
C522        H528   1.083       .  S
C529        C530   1.407       .  A
C529        C534   1.410       .  A
C530        C531   1.400       .  A
C530        H539   1.083       .  S
C531        C532   1.402       .  A
C531        H540   1.084       .  S
C532        C538   1.410       .  A
C532        C533   1.414       .  A
C533        C535   1.403       .  A
C533        C534   1.413       .  A
C534        H541   1.084       .  S
C535        C536   1.402       .  A
C535        H542   1.083       .  S
C536        C537   1.408       .  A
C536        H543   1.083       .  S
C537        C538   1.410       .  A
C538        H544   1.084       .  S
C545        C546   1.406       .  A
C545        C550   1.406       .  A
C546        C547   1.396       .  A
C546        H555   1.083       .  S
C547        C548   1.401       .  A
C547        H556   1.084       .  S
C548        C554   1.404       .  A
C548        C549   1.414       .  A
C549        C551   1.400       .  A
C549        C550   1.404       .  A
C550        H557   1.084       .  S
C551        C552   1.397       .  A
C551        H558   1.084       .  S
C552        C553   1.406       .  A
C552        H559   1.083       .  S
C553        C554   1.406       .  A
C554        H560   1.084       .  S
C561        C562   1.406       .  A
C561        C566   1.406       .  A
C562        C563   1.396       .  A
C562        H571   1.083       .  S
C563        C564   1.401       .  A
C563        H572   1.084       .  S
C564        C570   1.403       .  A
C564        C565   1.414       .  A
C565        C567   1.401       .  A
C565        C566   1.404       .  A
C566        H573   1.084       .  S
C567        C568   1.397       .  A
C567        H574   1.084       .  S
C568        C569   1.406       .  A
C568        H575   1.083       .  S
C569        C570   1.406       .  A
C570        H576   1.084       .  S
C577        C578   1.409   1_455  A
C577        C582   1.411   1_455  A
C578        C579   1.400       .  A
C578        H587   1.083   1_655  S
C579        C580   1.401       .  A
C579        H588   1.084       .  S
C580        C586   1.412       .  A
C580        C581   1.414       .  A
C581        C583   1.402       .  A
C581        C582   1.414       .  A
C582        H589   1.084       .  S
C583        C584   1.401       .  A
C583        H590   1.083       .  S
C584        C585   1.409       .  A
C584        H591   1.083       .  S
C585        C586   1.410       .  A
C586        H592   1.084       .  S
C593        C594   1.405       .  A
C593        C598   1.413       .  A
C594        C595   1.404       .  A
C594        H603   1.083       .  S
C595        C596   1.407       .  A
C595        H604   1.083       .  S
C596        C602   1.412       .  A
C596        C597   1.412       .  A
C597        C599   1.405       .  A
C597        C598   1.409       .  A
C598        H605   1.083       .  S
C599        C600   1.402       .  A
C599        H606   1.084       .  S
C600        C601   1.406       .  A
C600        H607   1.083       .  S
C601        C602   1.411       .  A
C602        H608   1.084       .  S
C609        C610   1.406       .  A
C609        C614   1.413   1_556  A
C610        C611   1.397       .  A
C610        H619   1.083       .  S
C611        C612   1.401       .  A
C611        H620   1.084       .  S
C612        C618   1.406       .  A
C612        C613   1.413   1_556  A
C613        C615   1.407       .  A
C613        C614   1.416       .  A
C614        H621   1.084       .  S
C615        C616   1.406       .  A
C615        H622   1.083       .  S
C616        C617   1.408       .  A
C616        H623   1.083       .  S
C617        C618   1.411   1_554  A
C618        H624   1.084       .  S
C625        C626   1.404       .  A
C625        C630   1.405       .  A
C626        C627   1.405       .  A
C626        H635   1.083       .  S
C627        C628   1.407       .  A
C627        H636   1.083       .  S
C628        C634   1.413       .  A
C628        C629   1.413       .  A
C629        C631   1.400       .  A
C629        C630   1.406       .  A
C630        H637   1.085       .  S
C631        C632   1.397       .  A
C631        H638   1.084       .  S
C632        C633   1.408       .  A
C632        H639   1.083       .  S
C633        C634   1.413       .  A
C634        H640   1.083       .  S
C641        C642   1.407       .  A
C641        C646   1.410       .  A
C642        C643   1.407       .  A
C642        H651   1.083       .  S
C643        C644   1.408       .  A
C643        H652   1.083       .  S
C644        C650   1.415       .  A
C644        C645   1.413       .  A
C645        C647   1.403   1_556  A
C645        C646   1.409       .  A
C646        H653   1.084   1_556  S
C647        C648   1.399       .  A
C647        H654   1.083       .  S
C648        C649   1.406   1_554  A
C648        H655   1.083       .  S
C649        C650   1.414       .  A
C650        H656   1.084       .  S
C657        C658   1.407       .  A
C657        C662   1.404       .  A
C658        C659   1.404       .  A
C658        H667   1.083       .  S
C659        C660   1.405       .  A
C659        H668   1.083       .  S
C660        C666   1.415       .  A
C660        C661   1.415       .  A
C661        C663   1.398       .  A
C661        C662   1.406       .  A
C662        H669   1.085       .  S
C663        C664   1.394       .  A
C663        H670   1.084       .  S
C664        C665   1.410       .  A
C664        H671   1.083       .  S
C665        C666   1.411       .  A
C666        H672   1.084       .  S
C673        C674   1.406       .  A
C673        C678   1.409       .  A
C674        C675   1.401       .  A
C674        H683   1.083       .  S
C675        C676   1.405       .  A
C675        H684   1.083       .  S
C676        C682   1.408       .  A
C676        C677   1.413       .  A
C677        C679   1.403       .  A
C677        C678   1.404       .  A
C678        H685   1.085       .  S
C679        C680   1.399       .  A
C679        H686   1.084       .  S
C680        C681   1.405       .  A
C680        H687   1.083       .  S
C681        C682   1.408       .  A
C682        H688   1.084       .  S
C689        C690   1.406       .  A
C689        C694   1.405       .  A
C690        C691   1.398       .  A
C690        H699   1.083       .  S
C691        C692   1.403       .  A
C691        H700   1.084       .  S
C692        C698   1.402       .  A
C692        C693   1.413       .  A
C693        C695   1.401       .  A
C693        C694   1.400       .  A
C694        H701   1.084       .  S
C695        C696   1.395       .  A
C695        H702   1.084       .  S
C696        C697   1.406       .  A
C696        H703   1.083       .  S
C697        C698   1.408       .  A
C698        H704   1.084       .  S
C705        C706   1.407       .  A
C705        C710   1.405       .  A
C706        C707   1.395       .  A
C706        H715   1.083       .  S
C707        C708   1.401       .  A
C707        H716   1.083       .  S
C708        C714   1.403       .  A
C708        C709   1.414       .  A
C709        C711   1.400       .  A
C709        C710   1.402       .  A
C710        H717   1.084       .  S
C711        C712   1.396       .  A
C711        H718   1.084       .  S
C712        C713   1.406       .  A
C712        H719   1.083       .  S
C713        C714   1.406       .  A
C714        H720   1.084       .  S
C721        C722   1.405       .  A
C721        C726   1.410       .  A
C722        C723   1.404       .  A
C722        H731   1.083       .  S
C723        C724   1.406       .  A
C723        H732   1.083       .  S
C724        C730   1.413       .  A
C724        C725   1.413       .  A
C725        C727   1.404       .  A
C725        C726   1.411       .  A
C726        H733   1.084       .  S
C727        C728   1.402       .  A
C727        H734   1.083       .  S
C728        C729   1.407       .  A
C728        H735   1.083       .  S
C729        C730   1.414       .  A
C730        H736   1.084       .  S
C737        C738   1.409       .  A
C737        C742   1.408       .  A
C738        C739   1.408       .  A
C738        H747   1.083       .  S
C739        C740   1.408   1_565  A
C739        H748   1.083       .  S
C740        C746   1.419       .  A
C740        C741   1.413   1_545  A
C741        C743   1.398   1_565  A
C741        C742   1.405       .  A
C742        H749   1.084       .  S
C743        C744   1.394       .  A
C743        H750   1.084   1_545  S
C744        C745   1.408       .  A
C744        H751   1.083       .  S
C745        C746   1.416       .  A
C746        H752   1.084       .  S
C753        C754   1.410   1_554  A
C753        C758   1.410       .  A
C754        C755   1.403       .  A
C754        H763   1.083       .  S
C755        C756   1.403   1_556  A
C755        H764   1.084       .  S
C756        C762   1.415       .  A
C756        C757   1.415       .  A
C757        C759   1.402       .  A
C757        C758   1.411       .  A
C758        H765   1.084       .  S
C759        C760   1.399       .  A
C759        H766   1.084       .  S
C760        C761   1.407       .  A
C760        H767   1.083       .  S
C761        C762   1.410       .  A
C762        H768   1.084   1_554  S
C769        C770   1.407       .  A
C769        C774   1.409       .  A
C770        C771   1.401       .  A
C770        H779   1.083       .  S
C771        C772   1.404       .  A
C771        H780   1.084       .  S
C772        C778   1.408       .  A
C772        C773   1.413       .  A
C773        C775   1.401       .  A
C773        C774   1.405       .  A
C774        H781   1.084       .  S
C775        C776   1.397       .  A
C775        H782   1.083       .  S
C776        C777   1.406       .  A
C776        H783   1.082       .  S
C777        C778   1.409       .  A
C778        H784   1.084       .  S
C785        C786   1.407       .  A
C785        C790   1.408       .  A
C786        C787   1.402       .  A
C786        H795   1.083       .  S
C787        C788   1.405       .  A
C787        H796   1.084       .  S
C788        C794   1.408       .  A
C788        C789   1.413       .  A
C789        C791   1.402       .  A
C789        C790   1.405       .  A
C790        H797   1.084       .  S
C791        C792   1.397       .  A
C791        H798   1.084       .  S
C792        C793   1.406       .  A
C792        H799   1.083       .  S
C793        C794   1.411       .  A
C794        H800   1.084       .  S
C801        C802   1.410       .  A
C801        C806   1.412       .  A
C802        C803   1.398       .  A
C802        H811   1.083       .  S
C803        C804   1.401   1_545  A
C803        H812   1.084   1_545  S
C804        C810   1.410       .  A
C804        C805   1.414   1_565  A
C805        C807   1.404   1_545  A
C805        C806   1.415       .  A
C806        H813   1.084       .  S
C807        C808   1.403       .  A
C807        H814   1.084       .  S
C808        C809   1.408       .  A
C808        H815   1.083       .  S
C809        C810   1.410       .  A
C810        H816   1.084       .  S
C817        C818   1.404       .  A
C817        C822   1.411       .  A
C818        C819   1.402       .  A
C818        H827   1.083       .  S
C819        C820   1.406       .  A
C819        H828   1.083       .  S
C820        C826   1.407       .  A
C820        C821   1.412       .  A
C821        C823   1.405       .  A
C821        C822   1.404       .  A
C822        H829   1.085       .  S
C823        C824   1.400       .  A
C823        H830   1.084       .  S
C824        C825   1.404       .  A
C824        H831   1.083       .  S
C825        C826   1.410       .  A
C826        H832   1.084       .  S
C833        C834   1.406   1_554  A
C833        C838   1.414       .  A
C834        C835   1.401       .  A
C834        H843   1.083       .  S
C835        C836   1.404   1_556  A
C835        H844   1.083       .  S
C836        C842   1.408       .  A
C836        C837   1.412       .  A
C837        C839   1.405       .  A
C837        C838   1.408       .  A
C838        H845   1.084       .  S
C839        C840   1.402       .  A
C839        H846   1.084       .  S
C840        C841   1.407       .  A
C840        H847   1.083       .  S
C841        C842   1.410       .  A
C842        H848   1.084   1_554  S
C849        C850   1.407       .  A
C849        C854   1.404       .  A
C850        C851   1.399       .  A
C850        H859   1.083       .  S
C851        C852   1.402       .  A
C851        H860   1.084       .  S
C852        C858   1.407       .  A
C852        C853   1.414       .  A
C853        C855   1.398       .  A
C853        C854   1.403       .  A
C854        H861   1.084       .  S
C855        C856   1.394       .  A
C855        H862   1.083       .  S
C856        C857   1.406       .  A
C856        H863   1.083       .  S
C857        C858   1.408       .  A
C858        H864   1.084       .  S
C865        C866   1.405       .  A
C865        C870   1.407       .  A
C866        C867   1.396       .  A
C866        H875   1.083       .  S
C867        C868   1.401       .  A
C867        H876   1.084       .  S
C868        C874   1.404       .  A
C868        C869   1.414       .  A
C869        C871   1.402       .  A
C869        C870   1.407       .  A
C870        H877   1.084       .  S
C871        C872   1.399       .  A
C871        H878   1.084       .  S
C872        C873   1.407       .  A
C872        H879   1.083       .  S
C873        C874   1.404       .  A
C874        H880   1.084       .  S
C881        C882   1.408       .  A
C881        C886   1.411       .  A
C882        C883   1.399       .  A
C882        H891   1.083       .  S
C883        C884   1.401       .  A
C883        H892   1.084       .  S
C884        C890   1.409       .  A
C884        C885   1.415       .  A
C885        C887   1.405       .  A
C885        C886   1.411       .  A
C886        H893   1.084       .  S
C887        C888   1.401       .  A
C887        H894   1.083       .  S
C888        C889   1.404       .  A
C888        H895   1.084       .  S
C889        C890   1.405       .  A
C890        H896   1.084       .  S
C897        C898   1.407       .  A
C897        C902   1.411       .  A
C898        C899   1.397       .  A
C898        H907   1.083       .  S
C899        C900   1.401       .  A
C899        H908   1.084       .  S
C900        C906   1.405       .  A
C900        C901   1.412       .  A
C901        C903   1.405       .  A
C901        C902   1.411       .  A
C902        H909   1.084       .  S
C903        C904   1.403   1_655  A
C903        H910   1.083       .  S
C904        C905   1.406       .  A
C904        H911   1.083       .  S
C905        C906   1.408   1_455  A
C906        H912   1.084   1_655  S
C913        C914   1.405       .  A
C913        C918   1.406   1_556  A
C914        C915   1.401       .  A
C914        H923   1.083       .  S
C915        C916   1.404       .  A
C915        H924   1.083       .  S
C916        C922   1.408       .  A
C916        C917   1.414   1_556  A
C917        C919   1.402       .  A
C917        C918   1.404       .  A
C918        H925   1.085       .  S
C919        C920   1.397       .  A
C919        H926   1.084       .  S
C920        C921   1.404       .  A
C920        H927   1.083       .  S
C921        C922   1.407   1_554  A
C922        H928   1.084       .  S
C929        C930   1.405       .  A
C929        C934   1.407       .  A
C930        C931   1.394       .  A
C930        H939   1.083       .  S
C931        C932   1.401       .  A
C931        H940   1.084       .  S
C932        C938   1.400       .  A
C932        C933   1.413       .  A
C933        C935   1.404       .  A
C933        C934   1.405       .  A
C934        H941   1.084       .  S
C935        C936   1.400       .  A
C935        H942   1.083       .  S
C936        C937   1.405       .  A
C936        H943   1.083       .  S
C937        C938   1.406       .  A
C938        H944   1.084       .  S
C945        C946   1.404       .  A
C945        C950   1.406       .  A
C946        C947   1.395       .  A
C946        H955   1.083       .  S
C947        C948   1.400       .  A
C947        H956   1.082       .  S
C948        C954   1.403       .  A
C948        C949   1.414       .  A
C949        C951   1.402       .  A
C949        C950   1.406       .  A
C950        H957   1.084       .  S
C951        C952   1.398       .  A
C951        H958   1.084       .  S
C952        C953   1.406       .  A
C952        H959   1.083       .  S
C953        C954   1.405       .  A
C954        H960   1.084       .  S
C961        C962   1.407       .  A
C961        C966   1.407   1_554  A
C962        C963   1.399       .  A
C962        H971   1.083       .  S
C963        C964   1.401       .  A
C963        H972   1.084       .  S
C964        C970   1.408   1_655  A
C964        C965   1.415       .  A
C965        C967   1.402   1_554  A
C965        C966   1.407   1_554  A
C966        H973   1.084       .  S
C967        C968   1.398   1_655  A
C967        H974   1.084       .  S
C968        C969   1.407   1_556  A
C968        H975   1.083       .  S
C969        C970   1.407       .  A
C970        H976   1.084       .  S
C977        C978   1.407       .  A
C977        C982   1.404       .  A
C978        C979   1.398       .  A
C978        H987   1.083       .  S
C979        C980   1.401       .  A
C979        H988   1.084       .  S
C980        C986   1.408       .  A
C980        C981   1.416       .  A
C981        C983   1.399       .  A
C981        C982   1.406       .  A
C982        H989   1.084       .  S
C983        C984   1.395       .  A
C983        H990   1.084       .  S
C984        C985   1.409       .  A
C984        H991   1.084       .  S
C985        C986   1.405       .  A
C986        H992   1.084       .  S
C993        C994   1.402       .  A
C993        C998   1.411       .  A
C994        C995   1.398       .  A
C994       H1003   1.083   1_556  S
C995        C996   1.403       .  A
C995       H1004   1.084   1_556  S
C996       C1002   1.404       .  A
C996        C997   1.412       .  A
C997        C999   1.407       .  A
C997        C998   1.411       .  A
C998       H1005   1.084       .  S
C999       C1000   1.405       .  A
C999       H1006   1.083       .  S
C1000      C1001   1.407       .  A
C1000      H1007   1.082       .  S
C1001      C1002   1.409       .  A
C1002      H1008   1.085       .  S
C1009      C1010   1.407       .  A
C1009      C1014   1.407       .  A
C1010      C1011   1.396       .  A
C1010      H1019   1.083       .  S
C1011      C1012   1.400       .  A
C1011      H1020   1.084       .  S
C1012      C1018   1.405       .  A
C1012      C1013   1.415       .  A
C1013      C1015   1.401       .  A
C1013      C1014   1.406       .  A
C1014      H1021   1.084       .  S
C1015      C1016   1.397       .  A
C1015      H1022   1.083       .  S
C1016      C1017   1.406       .  A
C1016      H1023   1.083       .  S
C1017      C1018   1.404       .  A
C1018      H1024   1.084       .  S
C1025      C1026   1.407       .  A
C1025      C1030   1.408       .  A
C1026      C1027   1.397       .  A
C1026      H1035   1.083       .  S
C1027      C1028   1.401       .  A
C1027      H1036   1.084       .  S
C1028      C1034   1.407       .  A
C1028      C1029   1.415       .  A
C1029      C1031   1.401       .  A
C1029      C1030   1.407       .  A
C1030      H1037   1.084       .  S
C1031      C1032   1.398       .  A
C1031      H1038   1.084       .  S
C1032      C1033   1.408       .  A
C1032      H1039   1.083       .  S
C1033      C1034   1.406       .  A
C1034      H1040   1.084       .  S
C1041      C1042   1.403       .  A
C1041      C1046   1.407       .  A
C1042      C1043   1.399       .  A
C1042      H1051   1.084       .  S
C1043      C1044   1.403       .  A
C1043      H1052   1.083       .  S
C1044      C1050   1.408       .  A
C1044      C1045   1.415       .  A
C1045      C1047   1.405       .  A
C1045      C1046   1.411       .  A
C1046      H1053   1.084       .  S
C1047      C1048   1.402       .  A
C1047      H1054   1.083       .  S
C1048      C1049   1.406       .  A
C1048      H1055   1.083       .  S
C1049      C1050   1.408       .  A
C1050      H1056   1.084       .  S
C1057      C1058   1.407       .  A
C1057      C1062   1.404       .  A
C1058      C1059   1.405   1_565  A
C1058      H1067   1.082       .  S
C1059      C1060   1.406       .  A
C1059      H1068   1.083       .  S
C1060      C1066   1.412       .  A
C1060      C1061   1.414       .  A
C1061      C1063   1.396       .  A
C1061      C1062   1.399   1_545  A
C1062      H1069   1.084       .  S
C1063      C1064   1.390       .  A
C1063      H1070   1.084       .  S
C1064      C1065   1.407       .  A
C1064      H1071   1.083       .  S
C1065      C1066   1.411       .  A
C1066      H1072   1.084       .  S
C1073      C1074   1.410       .  A
C1073      C1078   1.412   1_554  A
C1074      C1075   1.403       .  A
C1074      H1083   1.083       .  S
C1075      C1076   1.404       .  A
C1075      H1084   1.084       .  S
C1076      C1082   1.413       .  A
C1076      C1077   1.413   1_554  A
C1077      C1079   1.404       .  A
C1077      C1078   1.411       .  A
C1078      H1085   1.084       .  S
C1079      C1080   1.401       .  A
C1079      H1086   1.083       .  S
C1080      C1081   1.406       .  A
C1080      H1087   1.083       .  S
C1081      C1082   1.412   1_556  A
C1082      H1088   1.084       .  S
C1089      C1090   1.408       .  A
C1089      C1094   1.406       .  A
C1090      C1091   1.398       .  A
C1090      H1099   1.083       .  S
C1091      C1092   1.401       .  A
C1091      H1100   1.084       .  S
C1092      C1098   1.407       .  A
C1092      C1093   1.415       .  A
C1093      C1095   1.401       .  A
C1093      C1094   1.407       .  A
C1094      H1101   1.084       .  S
C1095      C1096   1.397       .  A
C1095      H1102   1.083       .  S
C1096      C1097   1.408       .  A
C1096      H1103   1.082       .  S
C1097      C1098   1.407       .  A
C1098      H1104   1.084       .  S
C1105      C1106   1.407       .  A
C1105      C1110   1.405       .  A
C1106      C1107   1.395       .  A
C1106      H1115   1.083       .  S
C1107      C1108   1.400       .  A
C1107      H1116   1.084       .  S
C1108      C1114   1.403       .  A
C1108      C1109   1.415       .  A
C1109      C1111   1.400       .  A
C1109      C1110   1.404       .  A
C1110      H1117   1.084       .  S
C1111      C1112   1.396       .  A
C1111      H1118   1.084       .  S
C1112      C1113   1.407       .  A
C1112      H1119   1.082       .  S
C1113      C1114   1.405       .  A
C1114      H1120   1.084       .  S
C1121      C1122   1.408       .  A
C1121      C1126   1.410       .  A
C1122      C1123   1.399       .  A
C1122      H1131   1.083   1_556  S
C1123      C1124   1.401       .  A
C1123      H1132   1.084   1_556  S
C1124      C1130   1.410   1_545  A
C1124      C1125   1.414       .  A
C1125      C1127   1.404       .  A
C1125      C1126   1.413       .  A
C1126      H1133   1.084       .  S
C1127      C1128   1.402   1_545  A
C1127      H1134   1.084       .  S
C1128      C1129   1.408       .  A
C1128      H1135   1.083       .  S
C1129      C1130   1.408       .  A
C1130      H1136   1.084       .  S
