geometry optimzed in LAMMPS
_audit_creation_date              2020-12-01 
_audit_creation_method            'lammps2cif' 
_symmetry_space_group_name_H-M    'P1' 
_symmetry_Int_Tables_number       1 
_symmetry_cell_setting            triclinic 
loop_ 
_symmetry_equiv_pos_as_xyz 
  x,y,z 
_cell_length_a                    45.79658681 
_cell_length_b                    45.86698849357972 
_cell_length_c                    35.247770365152505 
_cell_angle_alpha                 90.21796876244873 
_cell_angle_beta                  89.93327914491675 
_cell_angle_gamma                 88.80655441584219 
loop_ 
_atom_site_label 
_atom_site_type_symbol 
_atom_site_fract_x 
_atom_site_fract_y 
_atom_site_fract_z 
_atom_site_charge 
O1          O  0.95081558  0.96019486  0.20409202    -0.80300
O2          O  0.04137068  0.05844732  0.17375560    -0.65000
O3          O  0.00618889  0.98356492  0.18602989    -1.11600
C4          C  0.01907410  0.00194392  0.31742539     1.06600
O5          O  0.07543830  0.04758385  0.21627882    -0.78200
O6          O  0.07604670  0.99550452  0.25094572    -0.65800
Ni7        Ni  0.97134160  0.97356892  0.15970955     1.34900
C8          C  0.06694464  0.96964540  0.24842188     0.85300
O9          O  0.02281660  0.01820772  0.12347359    -0.78700
O10         O  0.98828897  0.98493136  0.11258473    -0.89000
C11         C  0.06526473  0.06416000  0.19043929     0.84900
O12         O  0.95144123  0.01033894  0.16431820    -0.67200
O13         O  0.04064485  0.01722047  0.30714545    -0.86500
C14         C  0.95955738  0.03626891  0.17007927     0.85700
C15         C  0.00743737  0.00266299  0.10120717     1.07300
H16         H  0.00698176  0.03772796  0.24033331     0.39100
O17         O  0.02127285  0.02303686  0.23277432    -1.09100
O18         O  0.04013426  0.96363262  0.24443079    -0.65800
Ni19       Ni  0.00398591  0.98586097  0.24009436     1.26300
O20         O  0.98607580  0.04263320  0.17622230    -0.66000
O21         O  0.00179679  0.98982342  0.29418477    -0.78300
C22         C  0.96061772  0.94419902  0.23077618     0.85100
O23         O  0.98545160  0.94901274  0.24500186    -0.65500
Ni24       Ni  0.05618600  0.03161396  0.25992834     1.27400
Ni25       Ni  0.02272468  0.02123871  0.17826949     1.26100
H26         H  0.02089513  0.96906670  0.17897778     0.39700
O27         O  0.93114150  0.96491549  0.70995586    -0.80300
O28         O  0.02659346  0.05408500  0.66798029    -0.65000
O29         O  0.98687056  0.98295280  0.68767920    -1.11600
C30         C  0.01012254  0.00653486  0.81543044     1.06600
O31         O  0.06314648  0.03667779  0.70216537    -0.78200
O32         O  0.06111951  0.98918731  0.74642785    -0.65800
Ni33       Ni  0.95068013  0.97465717  0.66339387     1.34900
C34         C  0.04912672  0.96455006  0.74748710     0.85300
O35         O  0.00313612  0.01423204  0.62191921    -0.78700
O36         O  0.96688459  0.98259423  0.61408771    -0.89000
C37         C  0.05288207  0.05540354  0.67906110     0.84900
O38         O  0.93341948  0.01282597  0.66690814    -0.67200
O39         O  0.03164364  0.01980799  0.80079215    -0.86500
C40         C  0.94339166  0.03812798  0.67230992     0.85700
C41         C  0.98685550  0.99874028  0.60095000     1.07300
H42         H  0.99599616  0.03864628  0.73819412     0.39100
O43         O  0.00804503  0.02224698  0.72996629    -1.09100
O44         O  0.02159574  0.96170127  0.74536140    -0.65800
Ni45       Ni  0.98779849  0.98760967  0.74200861     1.26300
O46         O  0.97050937  0.04293421  0.67640657    -0.66000
O47         O  0.99017712  0.99423976  0.79598883    -0.78300
C48         C  0.94074306  0.94885894  0.73667997     0.85100
O49         O  0.96558976  0.95327536  0.75140329    -0.65500
Ni50       Ni  0.04586947  0.02794303  0.75066434     1.27400
Ni51       Ni  0.00567410  0.01882022  0.67606831     1.26100
H52         H  0.00027947  0.96725602  0.68066461     0.39700
O53         O  0.23148010  0.32275717  0.12614380    -0.80300
O54         O  0.31324814  0.21910995  0.07380278    -0.65000
O55         O  0.24588828  0.26621436  0.09867674    -1.11600
C56         C  0.26416691  0.23956457  0.22560193     1.06600
O57         O  0.30483761  0.18530310  0.11731852    -0.78200
O58         O  0.25056260  0.19036857  0.14545188    -0.65800
Ni59       Ni  0.24055996  0.30440898  0.07794113     1.34900
C60         C  0.22606065  0.20366609  0.14728625     0.85300
O61         O  0.27302139  0.24732969  0.03169958    -0.78700
O62         O  0.24767712  0.28971299  0.02747774    -0.89000
C63         C  0.31792873  0.19390679  0.08769490     0.84900
O64         O  0.27991399  0.31689246  0.08312889    -0.67200
O65         O  0.27300992  0.21559182  0.21075049    -0.86500
C66         C  0.30445917  0.30350066  0.08381325     0.85700
C67         C  0.25968878  0.26710591  0.01250546     1.07300
H68         H  0.30188861  0.25170944  0.14722792     0.39100
O69         O  0.28497182  0.24097707  0.13955806    -1.09100
O70         O  0.22401245  0.23108767  0.15338278    -0.65800
Ni71       Ni  0.25068149  0.26357199  0.15219789     1.26300
O72         O  0.30693591  0.27577147  0.08384206    -0.66000
O73         O  0.25695314  0.26152297  0.20568129    -0.78300
C74         C  0.21481288  0.31327359  0.15203418     0.85100
O75         O  0.21685313  0.28699283  0.16241173    -0.65500
Ni76       Ni  0.28794519  0.20292295  0.16183607     1.27400
Ni77       Ni  0.27993675  0.24369514  0.08531196     1.26100
H78         H  0.22906485  0.25521863  0.09116696     0.39700
O79         O  0.20309438  0.31828388  0.61518335    -0.80300
O80         O  0.29886253  0.21948318  0.57989502    -0.65000
O81         O  0.22689530  0.26177116  0.59794733    -1.11600
C82         C  0.25092416  0.24540164  0.72712826     1.06600
O83         O  0.28881374  0.18559632  0.62182452    -0.78200
O84         O  0.23706823  0.19041501  0.65814860    -0.65800
Ni85       Ni  0.21933342  0.29771363  0.57159930     1.34900
C86         C  0.21178869  0.20231879  0.65744336     0.85300
O87         O  0.25680876  0.23932235  0.53392106    -0.78700
O88         O  0.23270393  0.28145176  0.52368445    -0.89000
C89         C  0.30456597  0.19494681  0.59502210     0.84900
O90         O  0.25641017  0.31432092  0.58197234    -0.67200
O91         O  0.26309969  0.22212157  0.71447769    -0.86500
C92         C  0.28183099  0.30273072  0.58229856     0.85700
C93         C  0.24533812  0.25810877  0.51172597     1.07300
H94         H  0.28388450  0.25490411  0.64742582     0.39100
O95         O  0.26782965  0.24245692  0.64124839    -1.09100
O96         O  0.20772226  0.22984883  0.65715677    -0.65800
Ni97       Ni  0.23219226  0.26352020  0.65194739     1.26300
O98         O  0.28643249  0.27524846  0.58204364    -0.66000
O99         O  0.23913687  0.26468570  0.70575822    -0.78300
C100        C  0.19039434  0.31000511  0.64531867     0.85100
O101        O  0.19696560  0.28574697  0.66064246    -0.65500
Ni102      Ni  0.27482183  0.20596883  0.66644794     1.27400
Ni103      Ni  0.26294601  0.24097248  0.58752487     1.26100
H104        H  0.21101932  0.24898014  0.59196672     0.39700
O105        O  0.30999280  0.69309192  0.36421022    -0.80300
O106        O  0.21311601  0.78929511  0.32319702    -0.65000
O107        O  0.28346773  0.74654900  0.34524110    -1.11600
C108        C  0.25493868  0.76987450  0.47287096     1.06600
O109        O  0.22692613  0.82547508  0.35990236    -0.78200
O110        O  0.27333654  0.82137323  0.40630145    -0.65800
Ni111      Ni  0.28828359  0.70894131  0.32199778     1.34900
C112        C  0.29865355  0.80972841  0.40389483     0.85300
O113        O  0.25494625  0.76631298  0.27983591    -0.78700
O114        O  0.26949244  0.72001640  0.27468834    -0.89000
C115        C  0.21119668  0.81574590  0.33320988     0.84900
O116        O  0.25267005  0.69483018  0.34242214    -0.67200
O117        O  0.24099161  0.79132159  0.45803067    -0.86500
C118        C  0.22728031  0.70616467  0.33845504     0.85700
C119        C  0.26104977  0.74403790  0.25981924     1.07300
H120        H  0.22654448  0.75691308  0.39339839     0.39100
O121        O  0.24269635  0.76902730  0.38641784    -1.09100
O122        O  0.30278146  0.78223536  0.40122238    -0.65800
Ni123      Ni  0.27790657  0.74851258  0.39959059     1.26300
O124        O  0.22334794  0.73309829  0.33035517    -0.66000
O125        O  0.27042280  0.75162824  0.45341964    -0.78300
C126        C  0.32125494  0.70232964  0.39490728     0.85100
O127        O  0.31266254  0.72588525  0.41104829    -0.65500
Ni128      Ni  0.23476743  0.80665014  0.40799676     1.27400
Ni129      Ni  0.24800994  0.76731437  0.33304300     1.26100
H130        H  0.29978303  0.75821670  0.33786052     0.39700
O131        O  0.29130866  0.68598886  0.85718715    -0.80300
O132        O  0.19551330  0.78528206  0.82651660    -0.65000
O133        O  0.26639110  0.74134233  0.84125039    -1.11600
C134        C  0.24569203  0.75795110  0.97282309     1.06600
O135        O  0.20612111  0.81845368  0.86969756    -0.78200
O136        O  0.25663014  0.81329974  0.90833959    -0.65800
Ni137      Ni  0.27065257  0.70452644  0.81584195     1.34900
C138        C  0.28201439  0.80267118  0.90211122     0.85300
O139        O  0.23614451  0.76406477  0.77942441    -0.78700
O140        O  0.25230333  0.71840206  0.76966505    -0.89000
C141        C  0.19148705  0.81034971  0.84102219     0.84900
O142        O  0.23500242  0.68997527  0.83493834    -0.67200
O143        O  0.22980368  0.77926492  0.96125667    -0.86500
C144        C  0.20964712  0.70166897  0.83404544     0.85700
C145        C  0.24333643  0.74311268  0.75742812     1.07300
H146        H  0.21177680  0.74802273  0.89377336     0.39100
O147        O  0.22714477  0.76115932  0.88705690    -1.09100
O148        O  0.28713604  0.77555243  0.89699955    -0.65800
Ni149      Ni  0.26368389  0.74101899  0.89556888     1.26300
O150        O  0.20564926  0.72896760  0.82887023    -0.66000
O151        O  0.25999375  0.74113862  0.95021997    -0.78300
C152        C  0.30559794  0.69506750  0.88564985     0.85100
O153        O  0.29960348  0.71944014  0.90143839    -0.65500
Ni154      Ni  0.21901178  0.79684449  0.91380145     1.27400
Ni155      Ni  0.23063319  0.76266921  0.83304712     1.26100
H156        H  0.28228859  0.75318670  0.83340701     0.39700
O157        O  0.56970425  0.03628727  0.95181361    -0.80300
O158        O  0.46911187  0.94515805  0.92369265    -0.65000
O159        O  0.51343747  0.01428641  0.93710873    -1.11600
C160        C  0.49951007  0.99070969  0.06777250     1.06600
O161        O  0.43620437  0.96312731  0.96347639    -0.78200
O162        O  0.44383315  0.00890512  0.00943159    -0.65800
Ni163      Ni  0.54903648  0.01902237  0.90980243     1.34900
C164        C  0.45491363  0.03354127  0.00316791     0.85300
O165        O  0.48974567  0.98360850  0.87523379    -0.78700
O166        O  0.53270060  0.00390960  0.86342222    -0.89000
C167        C  0.44344184  0.94546705  0.93710193     0.84900
O168        O  0.56504637  0.98195358  0.92316497    -0.67200
O169        O  0.47807158  0.97554361  0.05661131    -0.86500
C170        C  0.55367840  0.95695506  0.92430591     0.85700
C171        C  0.50904671  0.99238044  0.85239248     1.07300
H172        H  0.50716996  0.95955029  0.98886982     0.39100
O173        O  0.49422673  0.97591179  0.98247966    -1.09100
O174        O  0.48171205  0.03652461  0.99520991    -0.65800
Ni175      Ni  0.51517860  0.01065513  0.99138122     1.26300
O176        O  0.52611422  0.95337273  0.92369976    -0.66000
O177        O  0.51542290  0.00565067  0.04557361    -0.78300
C178        C  0.56216348  0.04945909  0.98228254     0.85100
O179        O  0.53786629  0.04482363  0.99830711    -0.65500
Ni180      Ni  0.45860472  0.96979390  0.00899083     1.27400
Ni181      Ni  0.49210262  0.97919811  0.92885501     1.26100
H182        H  0.50078617  0.03061500  0.93046085     0.39700
O183        O  0.57444999  0.95592942  0.46440705    -0.80300
O184        O  0.47568155  0.04443336  0.49970743    -0.65000
O185        O  0.51696787  0.97254533  0.48179747    -1.11600
C186        C  0.50410061  0.99856998  0.35245948     1.06600
O187        O  0.44209432  0.03350354  0.45762181    -0.63800
O188        O  0.44733841  0.98451215  0.41400265    -0.65800
Ni189      Ni  0.55144837  0.96296828  0.50946278     1.34900
C190        C  0.45824954  0.95886600  0.41611219     0.85300
O191        O  0.49525729  0.00225515  0.54602074    -0.78700
O192        O  0.53081502  0.96869401  0.55664608    -0.89000
C193        C  0.45076801  0.04925141  0.48502389     0.84900
O194        O  0.56796635  0.00088337  0.51292921    -0.67200
O195        O  0.48222895  0.01336458  0.36502460    -0.86500
C196        C  0.55796020  0.02652699  0.50737386     0.85700
C197        C  0.50968791  0.98521104  0.56795663     1.07300
H198        H  0.51238338  0.02892012  0.43290740     0.39100
O199        O  0.49920701  0.01330036  0.43853313    -1.09100
O200        O  0.48540033  0.95359490  0.42152862    -0.65800
Ni201      Ni  0.51973475  0.97732084  0.42798232     1.26300
O202        O  0.53151307  0.03172127  0.49815828    -0.66000
O203        O  0.52133203  0.98381958  0.37394680    -0.78300
C204        C  0.56786818  0.93925127  0.43697199     0.85100
O205        O  0.54296634  0.94201110  0.42106964    -0.65500
Ni206      Ni  0.46381793  0.02238172  0.41247447     1.27400
Ni207      Ni  0.49703717  0.00859207  0.49223282     1.26100
H208        H  0.50339376  0.95714570  0.48703777     0.39700
O209        O  0.80838787  0.80776168  0.37552487    -0.80300
O210        O  0.71958828  0.70647114  0.41016223    -0.65000
O211        O  0.78768860  0.75138760  0.39220655    -1.11600
C212        C  0.76298723  0.73348924  0.26288851     1.06600
O213        O  0.73366650  0.67230156  0.36959089    -0.78200
O214        O  0.78236267  0.67908210  0.32858568    -0.65800
Ni215      Ni  0.79031225  0.78831794  0.41779036     1.34900
C216        C  0.80679741  0.69149186  0.33027591     0.85300
O217        O  0.75967883  0.72828754  0.45611809    -0.78700
O218        O  0.77440056  0.77376359  0.46487583    -0.89000
C219        C  0.71686449  0.68127018  0.39600494     0.84900
O220        O  0.75298004  0.80246243  0.40127753    -0.67200
O221        O  0.75115555  0.71057163  0.27564634    -0.86500
C222        C  0.72854131  0.78996641  0.40322358     0.85700
C223        C  0.76575078  0.74946386  0.47777886     1.07300
H224        H  0.73151089  0.74205413  0.34282178     0.39100
O225        O  0.74845942  0.72997896  0.34898647    -1.09100
O226        O  0.80936597  0.71903779  0.33272388    -0.65800
Ni227      Ni  0.78241170  0.75200712  0.33792603     1.26300
O228        O  0.72648703  0.76251513  0.40780710    -0.66000
O229        O  0.77560960  0.75201557  0.28405649    -0.78300
C230        C  0.82066511  0.80001902  0.34457669     0.85100
O231        O  0.81559233  0.77563873  0.32894183    -0.65500
Ni232      Ni  0.74325503  0.69331296  0.32398976     1.27400
Ni233      Ni  0.75339742  0.72928611  0.40260624     1.26100
H234        H  0.80445682  0.73993363  0.39854987     0.39700
O235        O  0.78418839  0.81176031  0.86829481    -0.80300
O236        O  0.69560558  0.71586250  0.91136480    -0.65000
O237        O  0.76656355  0.75602272  0.89189729    -1.11600
C238        C  0.74746863  0.73269778  0.76326585     1.06600
O239        O  0.70856163  0.67968687  0.87256434    -0.78200
O240        O  0.75981264  0.68140547  0.83595985    -0.65800
Ni241      Ni  0.77446850  0.79254325  0.91517186     1.34900
C242        C  0.78482776  0.69265067  0.83836295     0.85300
O243        O  0.73575517  0.73924244  0.95691278    -0.78700
O244        O  0.76614004  0.77674300  0.96430879    -0.89000
C245        C  0.69345174  0.68962210  0.90028007     0.84900
O246        O  0.73627726  0.80939147  0.91164255    -0.67200
O247        O  0.73337462  0.71130353  0.77665276    -0.86500
C248        C  0.71099996  0.79924513  0.90685680     0.85700
C249        C  0.75080876  0.75619903  0.97758342     1.07300
H250        H  0.71176544  0.74747008  0.84034797     0.39100
O251        O  0.72777066  0.73489361  0.84862558    -1.09100
O252        O  0.78863826  0.72005476  0.83763701    -0.65800
Ni253      Ni  0.76348706  0.75441781  0.83795208     1.26300
O254        O  0.70636589  0.77205668  0.90313876    -0.66000
O255        O  0.75935400  0.75191814  0.78399534    -0.78300
C256        C  0.80015020  0.80234722  0.84119916     0.85100
O257        O  0.79825254  0.77613925  0.82984749    -0.65500
Ni258      Ni  0.72181203  0.69749813  0.82612720     1.27400
Ni259      Ni  0.73080177  0.73699376  0.90280893     1.26100
H260        H  0.78223771  0.74291537  0.89982772     0.39700
O261        O  0.72384140  0.17441593  0.12984914    -0.80300
O262        O  0.81255696  0.27282385  0.17016988    -0.65000
O263        O  0.74233703  0.23128019  0.15017945    -1.11600
C264        C  0.76682988  0.24507738  0.02052442     1.06600
O265        O  0.80392932  0.30521133  0.12481990    -0.78200
O266        O  0.75379675  0.30199197  0.08601936    -0.65800
Ni267      Ni  0.73414826  0.19550411  0.17548155     1.34900
C268        C  0.72837094  0.29164752  0.08806240     0.85300
O269        O  0.77024803  0.25217464  0.21546593    -0.78700
O270        O  0.74257875  0.21275463  0.22382089    -0.89000
C271        C  0.81773456  0.29710656  0.15440944     0.84900
O272        O  0.77236768  0.17858568  0.17266226    -0.67200
O273        O  0.78095844  0.26704802  0.03218772    -0.86500
C274        C  0.79766270  0.18916820  0.17068524     0.85700
C275        C  0.75628957  0.23460799  0.23659394     1.07300
H276        H  0.79929574  0.23559695  0.10189293     0.39100
O277        O  0.78334206  0.24912489  0.10744499    -1.09100
O278        O  0.72363765  0.26447425  0.09083055    -0.65800
Ni279      Ni  0.74774833  0.22958991  0.09655580     1.26300
O280        O  0.80201330  0.21637859  0.16704316    -0.66000
O281        O  0.75402820  0.22779614  0.04291323    -0.78300
C282        C  0.70928779  0.18342627  0.10135145     0.85100
O283        O  0.71278027  0.20886479  0.08853272    -0.65500
Ni284      Ni  0.79147684  0.28414021  0.08037951     1.27400
Ni285      Ni  0.77764323  0.25110711  0.16150488     1.26100
H286        H  0.72623211  0.24454781  0.15591624     0.39700
O287        O  0.70855151  0.17637298  0.62407905    -0.80300
O288        O  0.79265595  0.27624830  0.67122036    -0.65000
O289        O  0.72465658  0.23190558  0.64952228    -1.11600
C290        C  0.74880350  0.25699336  0.52159468     1.06600
O291        O  0.77660884  0.31161058  0.63438930    -0.78200
O292        O  0.72999938  0.30755163  0.58868013    -0.65800
Ni293      Ni  0.72056118  0.19404435  0.67103514     1.34900
C294        C  0.70517998  0.29610254  0.59244492     0.85300
O295        O  0.75384681  0.25015426  0.71573030    -0.78700
O296        O  0.73170299  0.20722232  0.72096001    -0.89000
C297        C  0.79435980  0.30226328  0.65938794     0.84900
O298        O  0.75908242  0.18007679  0.66087379    -0.67200
O299        O  0.76317051  0.27766291  0.53636171    -0.86500
C300        C  0.78358271  0.19242269  0.66039868     0.85700
C301        C  0.74393459  0.22934696  0.73550883     1.07300
H302        H  0.77933655  0.24349400  0.60008612     0.39100
O303        O  0.76287302  0.25564148  0.60793229    -1.09100
O304        O  0.70193813  0.26865016  0.59564632    -0.65800
Ni305      Ni  0.72837375  0.23496764  0.59522734     1.26300
O306        O  0.78606560  0.22000445  0.66225355    -0.66000
O307        O  0.73394426  0.23902641  0.54112552    -0.78300
C308        C  0.69278865  0.18549739  0.59671319     0.85100
O309        O  0.69461222  0.21163086  0.58494774    -0.65500
Ni310      Ni  0.76921750  0.29299486  0.58634096     1.27400
Ni311      Ni  0.75902112  0.25317388  0.66184098     1.26100
H312        H  0.70787802  0.24349306  0.65780071     0.39700
O313        O  0.44211738  0.53092196  0.01627061    -0.80300
O314        O  0.54301687  0.44277273  0.05710205    -0.65000
O315        O  0.49809878  0.51264175  0.03901621    -1.11600
C316        C  0.51583049  0.48612766  0.90941990     1.06600
O317        O  0.57570853  0.45918137  0.01712906    -0.78200
O318        O  0.56968863  0.50283172  0.96566394    -0.65800
Ni319      Ni  0.46142633  0.51987725  0.06275597     1.34900
C320        C  0.55928498  0.52820147  0.97240541     0.85300
O321        O  0.51847132  0.48306786  0.10369350    -0.78700
O322        O  0.47764521  0.51038514  0.11150746    -0.89000
C323        C  0.56862253  0.44145087  0.04310064     0.84900
O324        O  0.44623553  0.48174875  0.05736627    -0.67200
O325        O  0.53550544  0.46871164  0.92231105    -0.86500
C326        C  0.45780882  0.45641179  0.05554618     0.85700
C327        C  0.49988579  0.49657612  0.12472669     1.07300
H328        H  0.50567172  0.45759177  0.98894391     0.39100
O329        O  0.51876915  0.47312097  0.99563523    -1.09100
O330        O  0.53314564  0.53282076  0.98342422    -0.65800
Ni331      Ni  0.49889074  0.50893796  0.98493916     1.26300
O332        O  0.48541125  0.45215141  0.05333553    -0.66000
O333        O  0.50066863  0.50350766  0.93056935    -0.78300
C334        C  0.45150062  0.54819634  0.99110029     0.85100
O335        O  0.47698383  0.54450741  0.97741064    -0.65500
Ni336      Ni  0.55451898  0.46440863  0.97040472     1.27400
Ni337      Ni  0.51910169  0.47720849  0.04967447     1.26100
H338        H  0.51039490  0.52850872  0.04641718     0.39700
O339        O  0.43563594  0.46594820  0.51555919    -0.80300
O340        O  0.53822561  0.54573381  0.48267208    -0.65000
O341        O  0.49286928  0.47770018  0.49465306    -1.11600
C342        C  0.50954991  0.49378204  0.62577977     1.06600
O343        O  0.57148417  0.52980962  0.52335639    -0.78200
O344        O  0.56496908  0.47875295  0.56011272    -0.65800
Ni345      Ni  0.45648679  0.47399902  0.46949606     1.34900
C346        C  0.55278373  0.45443400  0.55484614     0.85300
O347        O  0.51469602  0.50829643  0.43264828    -0.78700
O348        O  0.47510269  0.48106450  0.42184135    -0.89000
C349        C  0.56329896  0.54758723  0.49767108     0.84900
O350        O  0.44247021  0.51356855  0.47154362    -0.67200
O351        O  0.53207158  0.50749524  0.61506253    -0.86500
C352        C  0.45492505  0.53773341  0.47646745     0.85700
C353        C  0.49741549  0.49484396  0.41041025     1.07300
H354        H  0.50151765  0.53011895  0.54939998     0.39100
O355        O  0.51393286  0.51374804  0.54154992    -1.09100
O356        O  0.52532852  0.45210012  0.55057075    -0.65800
Ni357      Ni  0.49218581  0.47892031  0.54872139     1.26300
O358        O  0.48199014  0.53929545  0.48427296    -0.66000
O359        O  0.49196817  0.48154580  0.60301315    -0.78300
C360        C  0.44298330  0.44571591  0.53841381     0.85100
O361        O  0.46849556  0.44505654  0.55241653    -0.65500
Ni362      Ni  0.55013789  0.51770483  0.56769224     1.27400
Ni363      Ni  0.51472080  0.51201105  0.48719383     1.26100
H364        H  0.50502625  0.46124116  0.48651998     0.39700
O365        O  0.08366474  0.53561488  0.28282522    -0.80300
O366        O  0.98646812  0.44821957  0.24518106    -0.65000
O367        O  0.02663954  0.51939035  0.26360621    -1.11600
C368        C  0.00817480  0.49908017  0.39234888     1.06600
O369        O  0.95164805  0.45952021  0.28628932    -0.78200
O370        O  0.95498644  0.51197099  0.31997897    -0.65800
Ni371      Ni  0.06181031  0.52774644  0.23724287     1.34900
C372        C  0.96612720  0.53709042  0.31961403     0.85300
O373        O  0.00698048  0.48935117  0.19935656    -0.78700
O374        O  0.04278068  0.52122567  0.18931472    -0.89000
C375        C  0.96125653  0.44398469  0.25884539     0.84900
O376        O  0.07877884  0.48946421  0.23685173    -0.67200
O377        O  0.98563988  0.48685821  0.37902514    -0.86500
C378        C  0.06894893  0.46424995  0.24283618     0.85700
C379        C  0.02182574  0.50556435  0.17760424     1.07300
H380        H  0.02026649  0.46371450  0.31436630     0.39100
O381        O  0.00759989  0.47994798  0.30723089    -1.09100
O382        O  0.99357044  0.54087521  0.32142733    -0.65800
Ni383      Ni  0.02787034  0.51550456  0.31753742     1.26300
O384        O  0.04221239  0.45968438  0.25004219    -0.66000
O385        O  0.02786150  0.51020289  0.37160201    -0.78300
C386        C  0.07571629  0.55245756  0.30979570     0.85100
O387        O  0.05046973  0.55017222  0.32454457    -0.65500
Ni388      Ni  0.97075385  0.47424331  0.33103421     1.27400
Ni389      Ni  0.00723688  0.48373704  0.25323700     1.26100
H390        H  0.01301879  0.53513711  0.25723639     0.39700
O391        O  0.06164347  0.53294926  0.79004114    -0.80300
O392        O  0.96413868  0.44948739  0.74671498    -0.65000
O393        O  0.00683353  0.51881905  0.76432117    -1.11600
C394        C  0.98596702  0.50027598  0.89440186     1.06600
O395        O  0.92986989  0.46250008  0.78789211    -0.78200
O396        O  0.93273094  0.51228485  0.82783581    -0.65800
Ni397      Ni  0.04417539  0.52393748  0.74231529     1.34900
C398        C  0.94312021  0.53733220  0.82207741     0.85300
O399        O  0.98834409  0.48898022  0.69945416    -0.78700
O400        O  0.02879018  0.51577896  0.69329399    -0.89000
C401        C  0.93941100  0.44547878  0.76200188     0.84900
O402        O  0.05942199  0.48496014  0.74594519    -0.67200
O403        O  0.96564964  0.48415028  0.88217306    -0.86500
C404        C  0.04736629  0.46031703  0.74719828     0.85700
C405        C  0.00740762  0.50197651  0.67924089     1.07300
H406        H  0.99905689  0.46544906  0.81618617     0.39100
O407        O  0.98581136  0.48113116  0.80863568    -1.09100
O408        O  0.97033086  0.54165110  0.81801880    -0.65800
Ni409      Ni  0.00517370  0.51713625  0.81847065     1.26300
O410        O  0.01994817  0.45771402  0.75133914    -0.66000
O411        O  0.00297393  0.51428407  0.87272758    -0.78300
C412        C  0.05205997  0.55388986  0.81037780     0.85100
O413        O  0.02664933  0.55252776  0.82464936    -0.65500
Ni414      Ni  0.94954100  0.47415632  0.83358136     1.27400
Ni415      Ni  0.98639107  0.48399702  0.75403388     1.26100
H416        H  0.99451393  0.53519787  0.75565647     0.39700
C417        C  0.98201146  0.49514038  0.57613307    -0.13800
C418        C  0.00827643  0.50024301  0.55665003     0.16600
C419        C  0.03355413  0.50613382  0.57772322     0.02900
C420        C  0.03241981  0.50630598  0.61721640    -0.12300
C421        C  0.00636814  0.50091246  0.63705793    -0.03300
C422        C  0.98086240  0.49535310  0.61600941     0.02200
C423        C  0.00908805  0.49965581  0.51447811     0.09000
N424        N  0.06084291  0.51139342  0.55950372     0.65400
H425        H  0.05248494  0.51041394  0.63241141     0.18300
N426        N  0.95348858  0.49112397  0.63443752     0.75800
H427        H  0.96217145  0.49141059  0.56029848     0.09800
C428        C  0.99939610  0.47529947  0.49396936     0.03500
C429        C  0.00007196  0.47549780  0.45435349    -0.05200
C430        C  0.01080745  0.49941594  0.43421111    -0.23600
C431        C  0.02114557  0.52357019  0.45466252     0.12700
C432        C  0.01970753  0.52370368  0.49443583    -0.12800
N433        N  0.98935168  0.44991158  0.51295876     0.64400
H434        H  0.99222900  0.45661527  0.43917428     0.12300
N435        N  0.03164365  0.54871520  0.43561337     0.61000
H436        H  0.02663969  0.54287422  0.50972584     0.08400
O437        O  0.93615051  0.51256386  0.63925819    -0.40400
O438        O  0.94456038  0.46560179  0.63958540    -0.39600
O439        O  0.07087185  0.53681741  0.55960689    -0.39600
O440        O  0.07737780  0.49010813  0.55059708    -0.37300
O441        O  0.01625225  0.57183715  0.43558215    -0.38200
O442        O  0.05829754  0.54981147  0.42673680    -0.34400
O443        O  0.96260914  0.44386194  0.51189751    -0.35800
O444        O  0.00763784  0.43106326  0.52464905    -0.40100
C445        C  0.98303345  0.49680087  0.08246679    -0.13800
C446        C  0.00528251  0.50410991  0.05696759     0.16600
C447        C  0.03229862  0.51318161  0.07148930     0.02900
C448        C  0.03695620  0.51391437  0.11068783    -0.12300
C449        C  0.01503224  0.50592991  0.13634079    -0.03300
C450        C  0.98751571  0.49789375  0.12182691     0.02200
C451        C  0.99974545  0.50312494  0.01539104     0.09000
N452        N  0.05557823  0.52096691  0.04672466     0.65400
H453        H  0.05820871  0.52019478  0.12100390     0.18300
N454        N  0.96340934  0.49251360  0.14651250     0.75800
H455        H  0.96174748  0.49101587  0.07176283     0.09800
C456        C  0.98997210  0.47758536  0.99745224     0.03500
C457        C  0.98516041  0.47732901  0.95822683    -0.05200
C458        C  0.99006683  0.50215095  0.93606719    -0.23600
C459        C  0.99896303  0.52800148  0.95417314     0.12700
C460        C  0.00375793  0.52823702  0.99346318    -0.12800
N461        N  0.98582183  0.45140766  0.01847463     0.64400
H462        H  0.97830298  0.45728361  0.94487011     0.12300
N463        N  0.00171117  0.55455795  0.93348018     0.61000
H464        H  0.01004297  0.54836927  0.00707278     0.08400
O465        O  0.95176974  0.46782377  0.14651525    -0.40400
O466        O  0.95065394  0.51365680  0.16305101    -0.39600
O467        O  0.06302716  0.54724416  0.04455572    -0.39600
O468        O  0.07157778  0.50125722  0.03199906    -0.37300
O469        O  0.97903901  0.56804022  0.92225614    -0.38200
O470        O  0.02598193  0.56704451  0.93245812    -0.34400
O471        O  0.96036331  0.44213088  0.02349645    -0.35800
O472        O  0.00756880  0.43531681  0.02667589    -0.40100
C473        C  0.52566236  0.47464416  0.80276719    -0.13800
C474        C  0.50091221  0.48907735  0.78840298     0.16600
C475        C  0.48057558  0.50190783  0.81371870     0.02900
C476        C  0.48567417  0.50064717  0.85294970    -0.12300
C477        C  0.51070792  0.48635359  0.86763748    -0.03300
C478        C  0.53075988  0.47306370  0.84177119     0.02200
C479        C  0.49812608  0.49158007  0.74673319     0.09000
N480        N  0.45430402  0.51552272  0.80008377     0.65400
H481        H  0.46976691  0.51068503  0.87195417     0.18300
N482        N  0.55695242  0.45860209  0.85426066     0.75800
H483        H  0.54152920  0.46493310  0.78338888     0.09800
C484        C  0.50462980  0.51779350  0.72815496     0.03500
C485        C  0.50722550  0.51818614  0.68859910    -0.05200
C486        C  0.50366594  0.49273678  0.66699326    -0.23600
C487        C  0.49603503  0.46674902  0.68548124     0.12700
C488        C  0.49331424  0.46638799  0.72511647    -0.12800
N489        N  0.51089843  0.54360515  0.74921478     0.64400
H490        H  0.51305226  0.53831875  0.67476424     0.12300
N491        N  0.49351569  0.44005195  0.66486333     0.61000
H492        H  0.48889890  0.44600509  0.73926691     0.08400
O493        O  0.58079143  0.47186108  0.85301980    -0.40400
O494        O  0.55728814  0.43129124  0.85848474    -0.39600
O495        O  0.43277298  0.49994826  0.79200154    -0.39600
O496        O  0.45058963  0.54272637  0.80367401    -0.37300
O497        O  0.51625350  0.42529808  0.65674856    -0.38200
O498        O  0.46883466  0.42862333  0.66146514    -0.34400
O499        O  0.53584559  0.54638296  0.76378799    -0.35800
O500        O  0.49397553  0.56557773  0.74677323    -0.40100
C501        C  0.51747868  0.51756776  0.30983837    -0.13800
C502        C  0.50563121  0.49461014  0.28888370     0.16600
C503        C  0.49331085  0.47104619  0.30799008     0.02900
C504        C  0.49192914  0.47120943  0.34753375    -0.12300
C505        C  0.50276688  0.49460595  0.36888299    -0.03300
C506        C  0.51641882  0.51763288  0.34963934     0.02200
C507        C  0.50523457  0.49588140  0.24705321     0.09000
N508        N  0.48093726  0.44738874  0.28748318     0.65400
H509        H  0.48170600  0.45307404  0.36156875     0.18300
N510        N  0.52851137  0.54157474  0.36982745     0.75800
H511        H  0.52723041  0.53567983  0.29518107     0.09800
C512        C  0.48570846  0.51480844  0.22818660     0.03500
C513        C  0.48508357  0.51518957  0.18858527    -0.05200
C514        C  0.50347191  0.49658772  0.16680700    -0.23600
C515        C  0.52339220  0.47779951  0.18609452     0.12700
C516        C  0.52394293  0.47755105  0.22590565    -0.12800
N517        N  0.46538251  0.53277467  0.24896411     0.64400
H518        H  0.46949895  0.52980987  0.17494575     0.12300
N519        N  0.54261904  0.45824604  0.16603765     0.61000
H520        H  0.53899512  0.46287468  0.24043930     0.08400
O521        O  0.51337862  0.56458155  0.37479128    -0.40400
O522        O  0.55566223  0.54186652  0.37580135    -0.39600
O523        O  0.49443928  0.42315686  0.28584773    -0.39600
O524        O  0.45472128  0.44921084  0.27662489    -0.37300
O525        O  0.56651852  0.46742125  0.15341377    -0.38200
O526        O  0.53887544  0.43114826  0.16842657    -0.34400
O527        O  0.46863544  0.56000696  0.25021159    -0.35800
O528        O  0.44202585  0.52204106  0.26111956    -0.40100
C529        C  0.84412619  0.36724854  0.67436380    -0.13800
C530        C  0.86189390  0.35741102  0.70415866     0.16600
C531        C  0.85679640  0.32984338  0.72008554     0.02900
C532        C  0.83456945  0.31240988  0.70552221    -0.12300
C533        C  0.81679247  0.32206281  0.67531165    -0.03300
C534        C  0.82168753  0.35012168  0.66003491     0.02200
C535        C  0.88387719  0.37745696  0.72000202     0.09000
N536        N  0.87443598  0.31900234  0.75052839     0.65400
H537        H  0.83140832  0.29110018  0.71785073     0.18300
N538        N  0.80396365  0.36189082  0.63024202     0.75800
H539        H  0.84730338  0.38875828  0.66260583     0.09800
C540        C  0.90684445  0.38802837  0.69757237     0.03500
C541        C  0.92494724  0.40982334  0.71177948    -0.05200
C542        C  0.92052607  0.42159711  0.74826122    -0.23600
C543        C  0.89797307  0.41022675  0.77110825     0.12700
C544        C  0.87994752  0.38847540  0.75679378    -0.12800
N545        N  0.91214851  0.37661678  0.66037509     0.64400
H546        H  0.94231329  0.41778920  0.69394264     0.12300
N547        N  0.89326515  0.42016973  0.80915143     0.61000
H548        H  0.86226968  0.38065312  0.77423771     0.08400
O549        O  0.81340208  0.36137716  0.59659561    -0.40400
O550        O  0.78206262  0.37783297  0.63847341    -0.39600
O551        O  0.86366734  0.31712627  0.78337457    -0.39600
O552        O  0.89873271  0.30671644  0.74335205    -0.37300
O553        O  0.87330230  0.43883349  0.81601049    -0.38200
O554        O  0.90525567  0.40662624  0.83626360    -0.34400
O555        O  0.90663842  0.39219069  0.63172966    -0.35800
O556        O  0.92649937  0.35301982  0.65640238    -0.40100
C557        C  0.61827040  0.40237775  0.54612450    -0.13800
C558        C  0.60947245  0.37882678  0.56847274     0.16600
C559        C  0.58077541  0.37916930  0.58326277     0.02900
C560        C  0.56183769  0.40306326  0.57594628    -0.12300
C561        C  0.57140209  0.42745968  0.55569115    -0.03300
C562        C  0.59979281  0.42663695  0.54006650     0.02200
C563        C  0.63182226  0.35597699  0.57848993     0.09000
N564        N  0.57148568  0.35702472  0.60876362     0.65400
H565        H  0.54026921  0.40349940  0.58863264     0.18300
N566        N  0.61031735  0.45037962  0.51816498     0.75800
H567        H  0.64014246  0.40237628  0.53432700     0.09800
C568        C  0.62926255  0.32621567  0.56868516     0.03500
C569        C  0.65261650  0.30648359  0.57583761    -0.05200
C570        C  0.67900130  0.31603147  0.59159486    -0.23600
C571        C  0.68086713  0.34562237  0.60268936     0.12700
C572        C  0.65743673  0.36501061  0.59633451    -0.12800
N573        N  0.60428101  0.31614313  0.54863489     0.64400
H574        H  0.65080489  0.28402525  0.56662227     0.12300
N575        N  0.70670526  0.35664380  0.61975090     0.61000
H576        H  0.65961166  0.38767603  0.60449999     0.08400
O577        O  0.60809382  0.44964290  0.48250102    -0.40400
O578        O  0.62680974  0.46871295  0.53346316    -0.39600
O579        O  0.58183184  0.35615871  0.64192154    -0.39600
O580        O  0.54895479  0.34274310  0.60119200    -0.37300
O581        O  0.72404964  0.37131891  0.60001662    -0.38200
O582        O  0.70909387  0.35677523  0.65540593    -0.34400
O583        O  0.60122024  0.32239329  0.51401294    -0.35800
O584        O  0.58900109  0.29638126  0.56288195    -0.40100
C585        C  0.77908596  0.24962776  0.91358690    -0.13800
C586        C  0.75422314  0.23594345  0.89952098     0.16600
C587        C  0.73468309  0.22331352  0.92531407     0.02900
C588        C  0.73963092  0.22561608  0.96452789    -0.12300
C589        C  0.76409715  0.24017144  0.97881087    -0.03300
C590        C  0.78437050  0.25150932  0.95268876     0.02200
C591        C  0.74985408  0.23422395  0.85776512     0.09000
N592        N  0.70917785  0.20900566  0.91213775     0.65400
H593        H  0.72371517  0.21674050  0.98386223     0.18300
N594        N  0.81110744  0.26380144  0.96528682     0.75800
H595        H  0.79484194  0.25842438  0.89396607     0.09800
C596        C  0.74532416  0.25961826  0.83595177     0.03500
C597        C  0.74375500  0.25774431  0.79625534    -0.05200
C598        C  0.74659185  0.23074241  0.77754502    -0.23600
C599        C  0.75143619  0.20530452  0.79947839     0.12700
C600        C  0.75269943  0.20721935  0.83921046    -0.12800
N601        N  0.74173165  0.28743218  0.85390510     0.64400
H602        H  0.73988403  0.27747032  0.78003659     0.12300
N603        N  0.75726761  0.17771035  0.78171485     0.61000
H604        H  0.75709021  0.18766556  0.85558577     0.08400
O605        O  0.81554497  0.29059045  0.96046484    -0.40400
O606        O  0.83196065  0.24714591  0.97530316    -0.39600
O607        O  0.70794304  0.18158262  0.91379116    -0.39600
O608        O  0.68634027  0.22382766  0.90498434    -0.37300
O609        O  0.78236259  0.17207685  0.76840826    -0.38200
O610        O  0.73901532  0.15759619  0.78444901    -0.34400
O611        O  0.76263769  0.30491295  0.85434961    -0.35800
O612        O  0.71665398  0.29606769  0.86440972    -0.40100
C613        C  0.75082256  0.22057451  0.34254085    -0.13800
C614        C  0.74767511  0.24883982  0.35719143     0.16600
C615        C  0.74898104  0.27274883  0.33216843     0.02900
C616        C  0.75269110  0.26795129  0.29301357    -0.12300
C617        C  0.75513942  0.23951138  0.27825637    -0.03300
C618        C  0.75467240  0.21572926  0.30367385     0.02200
C619        C  0.74640358  0.25261723  0.39902625     0.09000
N620        N  0.74585955  0.30194877  0.34603987     0.65400
H621        H  0.75290843  0.28647770  0.27403694     0.18300
N622        N  0.76059450  0.18661722  0.29093855     0.75800
H623        H  0.75127803  0.20208715  0.36161703     0.09800
C624        C  0.72426568  0.24001942  0.42105920     0.03500
C625        C  0.72571177  0.24109875  0.46079651    -0.05200
C626        C  0.74899438  0.25454521  0.47940143    -0.23600
C627        C  0.77137019  0.26680860  0.45706024     0.12700
C628        C  0.76975154  0.26586892  0.41741154    -0.12800
N629        N  0.69990412  0.22651137  0.40343638     0.64400
H630        H  0.70821423  0.23185642  0.47713491     0.12300
N631        N  0.79672673  0.27895212  0.47402461     0.61000
H632        H  0.78747889  0.27460369  0.40084301     0.08400
O633        O  0.78584964  0.17577345  0.29574182    -0.40400
O634        O  0.73964302  0.16996561  0.28406755    -0.39600
O635        O  0.76780806  0.31810137  0.34725694    -0.39600
O636        O  0.72066264  0.31295148  0.35104260    -0.37300
O637        O  0.81876390  0.26272645  0.48033434    -0.38200
O638        O  0.79916602  0.30627915  0.47566147    -0.34400
O639        O  0.69781880  0.19913333  0.40430013    -0.35800
O640        O  0.67817269  0.24198315  0.39342471    -0.40100
C641        C  0.87185378  0.33515890  0.22064413    -0.13800
C642        C  0.88023683  0.35883712  0.19818239     0.16600
C643        C  0.86835517  0.36174311  0.16158031     0.02900
C644        C  0.84850587  0.34129061  0.14809475    -0.12300
C645        C  0.83970756  0.31756933  0.17047627    -0.03300
C646        C  0.85185863  0.31461094  0.20721424     0.02200
C647        C  0.90112535  0.38052117  0.21336137     0.09000
N648        N  0.87533848  0.38607914  0.13829358     0.65400
H649        H  0.83969168  0.34433179  0.11984291     0.18300
N650        N  0.84382073  0.29127868  0.23156623     0.75800
H651        H  0.88090862  0.33261343  0.24885383     0.09800
C652        C  0.89350880  0.39850969  0.24435253     0.03500
C653        C  0.91333177  0.41878120  0.25824661    -0.05200
C654        C  0.94141899  0.42156535  0.24233599    -0.23600
C655        C  0.94930005  0.40294543  0.21160271     0.12700
C656        C  0.92900144  0.38307030  0.19710189    -0.12800
N657        N  0.86535183  0.39686067  0.26161102     0.64400
H658        H  0.90645320  0.43246061  0.28186815     0.12300
N659        N  0.97807532  0.40290026  0.19583973     0.61000
H660        H  0.93531569  0.36897867  0.17361465     0.08400
O661        O  0.82460139  0.29561310  0.25675839    -0.40400
O662        O  0.85912648  0.26808875  0.23205832    -0.39600
O663        O  0.89078302  0.38223690  0.10896204    -0.39600
O664        O  0.86226381  0.41025265  0.14352333    -0.37300
O665        O  0.99809315  0.38796142  0.21149940    -0.38200
O666        O  0.98199124  0.41248656  0.16276143    -0.34400
O667        O  0.86256365  0.38349803  0.29258631    -0.35800
O668        O  0.84460751  0.41279583  0.24955367    -0.40100
C669        C  0.65567435  0.32881471  0.06381061    -0.13800
C670        C  0.65830424  0.35562994  0.08270516     0.16600
C671        C  0.68320710  0.36046333  0.10516499     0.02900
C672        C  0.70560452  0.33921277  0.10670508    -0.12300
C673        C  0.70334034  0.31262207  0.08714526    -0.03300
C674        C  0.67784936  0.30730472  0.06594054     0.02200
C675        C  0.63588786  0.37894230  0.07612783     0.09000
N676        N  0.68562885  0.38641541  0.12746363     0.65400
H677        H  0.72476331  0.34334910  0.12377294     0.18300
N678        N  0.67503512  0.28110050  0.04430258     0.75800
H679        H  0.63675035  0.32498452  0.04618109     0.09800
C680        C  0.64264912  0.40431241  0.05580350     0.03500
C681        C  0.62056583  0.42474251  0.04717311    -0.05200
C682        C  0.59121761  0.42015586  0.05709778    -0.23600
C683        C  0.58452995  0.39481706  0.07807736     0.12700
C684        C  0.60697330  0.37477360  0.08771743    -0.12800
N685        N  0.67134904  0.40855090  0.04100536     0.64400
H686        H  0.62640891  0.44381286  0.03101733     0.12300
N687        N  0.55507724  0.38790055  0.08758861     0.61000
H688        H  0.60159483  0.35509961  0.10291701     0.08400
O689        O  0.68518934  0.27977456  0.01102716    -0.40400
O690        O  0.65801025  0.26165605  0.05556353    -0.39600
O691        O  0.66927461  0.39009265  0.15599668    -0.39600
O692        O  0.70750739  0.40239368  0.12340264    -0.37300
O693        O  0.53718130  0.38248602  0.06141574    -0.38200
O694        O  0.54895352  0.38071022  0.12114804    -0.34400
O695        O  0.67983974  0.39387636  0.01255717    -0.35800
O696        O  0.68532496  0.43078234  0.05075522    -0.40100
C697        C  0.83338216  0.62563942  0.85530692    -0.13800
C698        C  0.85861770  0.63273009  0.83498810     0.16600
C699        C  0.86028061  0.66060871  0.81833570     0.02900
C700        C  0.83671746  0.68054340  0.82198443    -0.12300
C701        C  0.81082291  0.67279653  0.84051596    -0.03300
C702        C  0.80954713  0.64515093  0.85792242     0.02200
C703        C  0.88159378  0.60966954  0.82933367     0.09000
N704        N  0.88440729  0.66803432  0.79471267     0.65400
H705        H  0.83791093  0.70144557  0.80789242     0.18300
N706        N  0.78415585  0.63643498  0.87822272     0.75800
H707        H  0.83188511  0.60440039  0.86847465     0.09800
C708        C  0.91073857  0.61279192  0.84155638     0.03500
C709        C  0.93097742  0.58957560  0.83680399    -0.05200
C710        C  0.92242754  0.56272151  0.82146019    -0.23600
C711        C  0.89335643  0.55991930  0.80878936     0.12700
C712        C  0.87347564  0.58331292  0.81248148    -0.12800
N713        N  0.91949710  0.63828193  0.86168965     0.64400
H714        H  0.95300154  0.59194450  0.84743444     0.12300
N715        N  0.88358060  0.53341484  0.79209598     0.61000
H716        H  0.85125660  0.58068713  0.80266057     0.08400
O717        O  0.78214069  0.64170194  0.91329902    -0.40400
O718        O  0.76676572  0.61891208  0.86299938    -0.39600
O719        O  0.88787047  0.65526840  0.76319623    -0.39600
O720        O  0.89833170  0.69092639  0.80150022    -0.37300
O721        O  0.86912626  0.51589096  0.81181276    -0.38200
O722        O  0.88453601  0.53024140  0.75654327    -0.34400
O723        O  0.91048453  0.64251812  0.89514860    -0.35800
O724        O  0.94056971  0.65286897  0.84947116    -0.40100
C725        C  0.62787674  0.65381834  0.94708620    -0.13800
C726        C  0.63789989  0.62462236  0.94899845     0.16600
C727        C  0.66718908  0.61813405  0.93903518     0.02900
C728        C  0.68493688  0.63993395  0.92460547    -0.12300
C729        C  0.67459766  0.66878463  0.92071478    -0.03300
C730        C  0.64607828  0.67594417  0.93353627     0.02200
C731        C  0.61701285  0.60055409  0.95597468     0.09000
N732        N  0.67918040  0.58928526  0.94306583     0.65400
H733        H  0.70703494  0.63412471  0.91595200     0.18300
N734        N  0.63453814  0.70500442  0.93031834     0.75800
H735        H  0.60540306  0.65924953  0.95423643     0.09800
C736        C  0.59900910  0.59934630  0.98850363     0.03500
C737        C  0.57979905  0.57602339  0.99323274    -0.05200
C738        C  0.57847543  0.55347167  0.96622145    -0.23600
C739        C  0.59583521  0.55520837  0.93325154     0.12700
C740        C  0.61463936  0.57856667  0.92837064    -0.12800
N741        N  0.60081588  0.62092690  0.01766218     0.64400
H742        H  0.56651896  0.57508481  0.01864733     0.12300
N743        N  0.59360609  0.53409347  0.90353694     0.61000
H744        H  0.62728001  0.57971243  0.90243180     0.08400
O745        O  0.63439433  0.72160193  0.95895118    -0.40400
O746        O  0.61992285  0.71218013  0.90137555    -0.39600
O747        O  0.68680811  0.57490725  0.91397672    -0.39600
O748        O  0.68707006  0.58048891  0.97541515    -0.37300
O749        O  0.57456160  0.53767050  0.87803180    -0.38200
O750        O  0.61387736  0.51538391  0.89878186    -0.34400
O751        O  0.58013726  0.63923738  0.02208443    -0.35800
O752        O  0.61998611  0.61816133  0.04314809    -0.40100
C753        C  0.75374960  0.71817891  0.57726745    -0.13800
C754        C  0.75409245  0.74357675  0.59955359     0.16600
C755        C  0.75842856  0.77056057  0.58181885     0.02900
C756        C  0.76225352  0.77185617  0.54244042    -0.12300
C757        C  0.76201825  0.74651870  0.51973800    -0.03300
C758        C  0.75789873  0.71932444  0.53779246     0.02200
C759        C  0.75191114  0.74136911  0.64150876     0.09000
N760        N  0.75844630  0.79696931  0.60344778     0.65400
H761        H  0.76511896  0.79302935  0.52960294     0.18300
N762        N  0.75932256  0.69253675  0.51694884     0.75800
H763        H  0.75113453  0.69720435  0.59077652     0.09800
C764        C  0.72625124  0.73193062  0.65929496     0.03500
C765        C  0.72534399  0.72886857  0.69885831    -0.05200
C766        C  0.74967309  0.73536916  0.72139287    -0.23600
C767        C  0.77546419  0.74465754  0.70347123     0.12700
C768        C  0.77629717  0.74774086  0.66388884    -0.12800
N769        N  0.70060961  0.72644316  0.63760269     0.64400
H770        H  0.70527585  0.72198352  0.71210222     0.12300
N771        N  0.80148950  0.74935955  0.72478406     0.61000
H772        H  0.79635953  0.75440355  0.65041824     0.08400
O773        O  0.73625719  0.67874351  0.51067741    -0.40400
O774        O  0.78380798  0.68021935  0.51099972    -0.39600
O775        O  0.78186098  0.81065204  0.60752241    -0.39600
O776        O  0.73451320  0.80882289  0.61336593    -0.37300
O777        O  0.81691733  0.72775277  0.73530036    -0.38200
O778        O  0.81171996  0.77463540  0.72690149    -0.34400
O779        O  0.69314204  0.70054245  0.63137754    -0.35800
O780        O  0.68318260  0.74723651  0.62984180    -0.40100
C781        C  0.74973221  0.72315703  0.07672874    -0.13800
C782        C  0.75260630  0.74817282  0.09958000     0.16600
C783        C  0.75436154  0.77559859  0.08183074     0.02900
C784        C  0.75363739  0.77752672  0.04225632    -0.12300
C785        C  0.75057679  0.75262491  0.01940064    -0.03300
C786        C  0.74832475  0.72517797  0.03704159     0.02200
C787        C  0.75481600  0.74519752  0.14162646     0.09000
N788        N  0.75611298  0.80185751  0.10359974     0.65400
H789        H  0.75499402  0.79885813  0.02931989     0.18300
N790        N  0.74614395  0.69903719  0.01510745     0.75800
H791        H  0.74920413  0.70180247  0.08968951     0.09800
C792        C  0.73448531  0.72891764  0.16231157     0.03500
C793        C  0.73786318  0.72543202  0.20144481    -0.05200
C794        C  0.76088514  0.73842146  0.22127561    -0.23600
C795        C  0.78101357  0.75516818  0.20073469     0.12700
C796        C  0.77809623  0.75796169  0.16124486    -0.12800
N797        N  0.70968779  0.71652015  0.14423756     0.64400
H798        H  0.72178051  0.71292118  0.21655709     0.12300
N799        N  0.80495830  0.76879248  0.21917871     0.61000
H800        H  0.79441157  0.76987559  0.14577278     0.08400
O801        O  0.72164325  0.68734131  0.01101427    -0.40400
O802        O  0.76905912  0.68524068  0.00525355    -0.39600
O803        O  0.77900412  0.81667252  0.10227750    -0.39600
O804        O  0.73325102  0.81283638  0.11826449    -0.37300
O805        O  0.82942507  0.75570371  0.22059898    -0.38200
O806        O  0.80331052  0.79566393  0.22688507    -0.34400
O807        O  0.70719491  0.68917792  0.14315541    -0.35800
O808        O  0.68811265  0.73270606  0.13560137    -0.40100
C809        C  0.93104026  0.61303909  0.33212627    -0.13800
C810        C  0.90256701  0.60796199  0.31961956     0.16600
C811        C  0.89595529  0.58053533  0.30415310     0.02900
C812        C  0.91722543  0.55821743  0.30360766    -0.12300
C813        C  0.94561067  0.56269774  0.31740916    -0.03300
C814        C  0.95267322  0.59086915  0.33074606     0.02200
C815        C  0.87951658  0.63083479  0.32469484     0.09000
N816        N  0.86787706  0.57520119  0.28815350     0.65400
H817        H  0.91139538  0.53717110  0.29213780     0.18300
N818        N  0.98122458  0.59716544  0.34438214     0.75800
H819        H  0.93635658  0.63419691  0.34370398     0.09800
C820        C  0.85680729  0.62720343  0.35116548     0.03500
C821        C  0.83369065  0.64758860  0.35295593    -0.05200
C822        C  0.83317977  0.67232896  0.32967693    -0.23600
C823        C  0.85661729  0.67671176  0.30442481     0.12700
C824        C  0.87948895  0.65587655  0.30196026    -0.12800
N825        N  0.85738648  0.60332762  0.37713679     0.64400
H826        H  0.81605823  0.64417762  0.37290041     0.12300
N827        N  0.85636480  0.70091920  0.27907961     0.61000
H828        H  0.89683796  0.65881844  0.28147985     0.08400
O829        O  0.98467815  0.60313862  0.37902487    -0.40400
O830        O  0.00091091  0.60360818  0.32097105    -0.39600
O831        O  0.86179314  0.58516263  0.25572447    -0.39600
O832        O  0.85205982  0.55582214  0.30228636    -0.37300
O833        O  0.87073080  0.72325667  0.28726050    -0.38200
O834        O  0.84692176  0.69765193  0.24575495    -0.34400
O835        O  0.87454845  0.60385968  0.40510344    -0.35800
O836        O  0.83716468  0.58506390  0.37654414    -0.40100
C837        C  0.63011969  0.59527787  0.48713586    -0.13800
C838        C  0.62473544  0.60855757  0.45209292     0.16600
C839        C  0.59840148  0.60306167  0.43297598     0.02900
C840        C  0.57821957  0.58400827  0.44890807    -0.12300
C841        C  0.58409159  0.56958701  0.48333799    -0.03300
C842        C  0.61015197  0.57610376  0.50296483     0.02200
C843        C  0.64747714  0.62737588  0.43595486     0.09000
N844        N  0.59258502  0.61530301  0.39645065     0.65400
H845        H  0.55829410  0.57976882  0.43353824     0.18300
N846        N  0.61649238  0.56402994  0.53941783     0.75800
H847        H  0.65009603  0.59981910  0.50233404     0.09800
C848        C  0.64383773  0.65791792  0.43422433     0.03500
C849        C  0.66682786  0.67500320  0.42143262    -0.05200
C850        C  0.69363364  0.66220729  0.41030278    -0.23600
C851        C  0.69716454  0.63157329  0.41184892     0.12700
C852        C  0.67415298  0.61450825  0.42464492    -0.12800
N853        N  0.61744503  0.67200721  0.44687539     0.64400
H854        H  0.66368897  0.69846644  0.42025401     0.12300
N855        N  0.72444885  0.61759207  0.40264306     0.61000
H856        H  0.67729569  0.59106540  0.42647168     0.08400
O857        O  0.60803672  0.57746951  0.56887660    -0.40400
O858        O  0.63491903  0.54332186  0.54228659    -0.39600
O859        O  0.60544710  0.60474911  0.36768459    -0.39600
O860        O  0.57072970  0.63214423  0.39198692    -0.37300
O861        O  0.74343325  0.61401678  0.42821688    -0.38200
O862        O  0.72725889  0.60401739  0.37160815    -0.34400
O863        O  0.61372656  0.67669630  0.48186081    -0.35800
O864        O  0.60141084  0.68531446  0.42324224    -0.40100
C865        C  0.63991302  0.89675123  0.42369968    -0.13800
C866        C  0.63105631  0.87189665  0.40413637     0.16600
C867        C  0.60155784  0.86986551  0.39323878     0.02900
C868        C  0.58136217  0.89235574  0.40285437    -0.12300
C869        C  0.59006154  0.91700182  0.42364926    -0.03300
C870        C  0.61999932  0.91906390  0.43351858     0.02200
C871        C  0.65303902  0.84793799  0.39805302     0.09000
N872        N  0.59189582  0.84522428  0.37220301     0.65400
H873        H  0.55869674  0.89017474  0.39476004     0.18300
N874        N  0.63082984  0.94367095  0.45360942     0.75800
H875        H  0.66253168  0.89856646  0.43229472     0.09800
C876        C  0.67747734  0.85209781  0.37451542     0.03500
C877        C  0.70135424  0.83250371  0.37581256    -0.05200
C878        C  0.70154250  0.80844636  0.40035200    -0.23600
C879        C  0.67658599  0.80360673  0.42298379     0.12700
C880        C  0.65256164  0.82322566  0.42145745    -0.12800
N881        N  0.67867312  0.87672142  0.34992695     0.64400
H882        H  0.72014123  0.83645515  0.35796679     0.12300
N883        N  0.67653656  0.78079079  0.45051329     0.61000
H884        H  0.63432605  0.82026806  0.44058766     0.08400
O885        O  0.63385041  0.94225874  0.48914382    -0.40400
O886        O  0.64384680  0.96317474  0.43544732    -0.39600
O887        O  0.57666191  0.82626929  0.38827443    -0.39600
O888        O  0.59476296  0.84471967  0.33659803    -0.37300
O889        O  0.68893357  0.78451889  0.48207499    -0.38200
O890        O  0.66021470  0.75924273  0.44591537    -0.34400
O891        O  0.69468805  0.89782494  0.35840026    -0.35800
O892        O  0.66785901  0.87516168  0.31709611    -0.40100
C893        C  0.62637178  0.07156136  0.52117102    -0.13800
C894        C  0.61455236  0.09779100  0.53575773     0.16600
C895        C  0.58389850  0.10134736  0.53744546     0.02900
C896        C  0.56582325  0.07846159  0.52629248    -0.12300
C897        C  0.57768344  0.05159525  0.51365039    -0.03300
C898        C  0.60837523  0.04862756  0.51023548     0.02200
C899        C  0.63458446  0.12052394  0.55049854     0.09000
N900        N  0.57079407  0.12736012  0.55274860     0.65400
H901        H  0.54238498  0.08128843  0.52937198     0.18300
N902        N  0.62163271  0.02277672  0.49468254     0.75800
H903        H  0.64983811  0.06878278  0.51845385     0.09800
C904        C  0.65544387  0.11353220  0.57852339     0.03500
C905        C  0.67425459  0.13483378  0.59195671    -0.05200
C906        C  0.67295817  0.16379085  0.57858426    -0.23600
C907        C  0.65236420  0.17069236  0.54987229     0.12700
C908        C  0.63348223  0.14912644  0.53617592    -0.12800
N909        N  0.65706904  0.08505049  0.59487156     0.64400
H910        H  0.68967000  0.12849402  0.61385873     0.12300
N911        N  0.65031088  0.19927734  0.53410780     0.61000
H912        H  0.61800677  0.15472400  0.51401523     0.08400
O913        O  0.63652359  0.00599158  0.51573935    -0.40400
O914        O  0.62293020  0.01965854  0.45914296    -0.39600
O915        O  0.55765659  0.14504594  0.53102424    -0.39600
O916        O  0.56812109  0.13018442  0.58821061    -0.37300
O917        O  0.66395272  0.20466699  0.50391967    -0.38200
O918        O  0.63024660  0.21659485  0.54509899    -0.34400
O919        O  0.67941815  0.06902384  0.58936559    -0.35800
O920        O  0.63856994  0.07789922  0.61951921    -0.40100
C921        C  0.48768350  0.00863473  0.66791513    -0.13800
C922        C  0.49617861  0.98391063  0.68889570     0.16600
C923        C  0.50491505  0.95835182  0.66919266     0.02900
C924        C  0.50799983  0.95893398  0.62965793    -0.12300
C925        C  0.50212038  0.98452680  0.60894316    -0.03300
C926        C  0.49071278  0.00925176  0.62838228     0.02200
C927        C  0.49841317  0.98619836  0.73095974     0.09000
N928        N  0.51207568  0.93201486  0.68893569     0.65400
H929        H  0.51588168  0.93940720  0.61520559     0.18300
N930        N  0.48404344  0.03582952  0.60892731     0.75800
H931        H  0.47990401  0.02812796  0.68251884     0.09800
C932        C  0.51483749  0.00851077  0.74778972     0.03500
C933        C  0.51737002  0.01020301  0.78717008    -0.05200
C934        C  0.50408095  0.98988575  0.81090301    -0.23600
C935        C  0.48725376  0.96768694  0.79425154     0.12700
C936        C  0.48451032  0.96611790  0.75457654    -0.12800
N937        N  0.53008122  0.02909211  0.72520568     0.64400
H938        H  0.53026016  0.02748439  0.79922733     0.12300
N939        N  0.47391212  0.94585229  0.81690055     0.61000
H940        H  0.47147233  0.94910550  0.74221219     0.08400
O941        O  0.50360375  0.05454991  0.60489736    -0.40400
O942        O  0.45773655  0.04287139  0.60252671    -0.39600
O943        O  0.49432216  0.91133491  0.68860140    -0.39600
O944        O  0.53789055  0.92739299  0.70019025    -0.37300
O945        O  0.44806474  0.94985663  0.82852259    -0.38200
O946        O  0.48522759  0.92055902  0.81800426    -0.34400
O947        O  0.52212613  0.05560068  0.72572843    -0.35800
O948        O  0.55422357  0.02182103  0.71029602    -0.40100
C949        C  0.50663931  0.96906253  0.17134919    -0.13800
C950        C  0.51247787  0.99596381  0.18832961     0.16600
C951        C  0.51557339  0.02080614  0.16535469     0.02900
C952        C  0.51161258  0.01855758  0.12606524    -0.12300
C953        C  0.50543291  0.99170966  0.10898399    -0.03300
C954        C  0.50316163  0.96672409  0.13201041     0.02200
C955        C  0.51175476  0.99816915  0.23018724     0.09000
N956        N  0.52298110  0.04832867  0.18150756     0.65400
H957        H  0.51264748  0.03804858  0.10894886     0.18300
N958        N  0.49737734  0.93881895  0.11587704     0.75800
H959        H  0.50400396  0.94991762  0.18886206     0.09800
C960        C  0.48781771  0.01173259  0.24853344     0.03500
C961        C  0.48646523  0.01214330  0.28804297    -0.05200
C962        C  0.50835633  0.99868355  0.31045105    -0.23600
C963        C  0.53254147  0.98520736  0.29184965     0.12700
C964        C  0.53398293  0.98504964  0.25199187    -0.12800
N965        N  0.46370211  0.02352621  0.22740787     0.64400
H966        H  0.46736089  0.02230727  0.30105124     0.12300
N967        N  0.55569805  0.97149747  0.31274231     0.61000
H968        H  0.55238956  0.97438695  0.23796062     0.08400
O969        O  0.47187016  0.92899023  0.11730171    -0.40400
O970        O  0.51842617  0.92200318  0.10685376    -0.39600
O971        O  0.54854225  0.05199399  0.19370870    -0.39600
O972        O  0.50622509  0.07020941  0.17684342    -0.37300
O973        O  0.55604382  0.94419371  0.31704543    -0.38200
O974        O  0.57809184  0.98577778  0.32096336    -0.34400
O975        O  0.44491314  0.00652562  0.21416050    -0.35800
O976        O  0.45790392  0.05051715  0.22905615    -0.40100
C977        C  0.58817287  0.88106308  0.90983950    -0.13800
C978        C  0.61688633  0.88552433  0.92236770     0.16600
C979        C  0.62382347  0.91312772  0.93754453     0.02900
C980        C  0.60260929  0.93546192  0.93896264    -0.12300
C981        C  0.57407799  0.93126914  0.92573837    -0.03300
C982        C  0.56678453  0.90344504  0.91173007     0.02200
C983        C  0.63992786  0.86233484  0.91648070     0.09000
N984        N  0.65244792  0.91907198  0.95138376     0.65400
H985        H  0.60873124  0.95645872  0.95031970     0.18300
N986        N  0.53848273  0.89810676  0.89661649     0.75800
H987        H  0.58253778  0.86048300  0.89692500     0.09800
C988        C  0.63610008  0.83297244  0.92726870     0.03500
C989        C  0.65887356  0.81229426  0.92201568    -0.05200
C990        C  0.68589824  0.82038150  0.90685861    -0.23600
C991        C  0.68917403  0.84945412  0.89464514     0.12700
C992        C  0.66621215  0.86976844  0.89885042    -0.12800
N993        N  0.60981003  0.82403746  0.94526132     0.64400
H994        H  0.65587718  0.79015229  0.93168074     0.12300
N995        N  0.71571916  0.85882468  0.87775859     0.61000
H996        H  0.66910966  0.89167229  0.88833267     0.08400
O997        O  0.51986888  0.88535425  0.91669285    -0.40400
O998        O  0.53421850  0.90077946  0.86144879    -0.39600
O999        O  0.66762552  0.93794307  0.93499521    -0.39600
O1000       O  0.66002074  0.90999541  0.98372000    -0.37300
O1001       O  0.71895511  0.85691502  0.84227983    -0.38200
O1002       O  0.73292911  0.87416217  0.89691025    -0.34400
O1003       O  0.59297697  0.80701769  0.92808980    -0.35800
O1004       O  0.60613652  0.82880346  0.98023461    -0.40100
C1005       C  0.66580143  0.11666358  0.07232765    -0.13800
C1006       C  0.64648825  0.12886341  0.04571943     0.16600
C1007       C  0.64808808  0.15867830  0.03708653     0.02900
C1008       C  0.66909917  0.17577675  0.05481198    -0.12300
C1009       C  0.68837640  0.16384830  0.08202051    -0.03300
C1010       C  0.68655440  0.13376809  0.09061666     0.02200
C1011       C  0.62418875  0.11018819  0.02834389     0.09000
N1012       N  0.62750138  0.17221916  0.01194995     0.65400
H1013       H  0.66965241  0.19876800  0.04798423     0.18300
N1014       N  0.70545781  0.12013855  0.11780423     0.75800
H1015       H  0.66457030  0.09369963  0.07917787     0.09800
C1016       C  0.62764375  0.09872327  0.99156073     0.03500
C1017       C  0.60700413  0.07949769  0.97708410    -0.05200
C1018       C  0.58301592  0.07063596  0.99908221    -0.23600
C1019       C  0.57996567  0.08212831  0.03634653     0.12700
C1020       C  0.60022828  0.10205821  0.05017904    -0.12800
N1021       N  0.65284143  0.10515713  0.96940649     0.64400
H1022       H  0.61022404  0.07103142  0.94861839     0.12300
N1023       N  0.55827487  0.07190120  0.06191751     0.61000
H1024       H  0.59801996  0.11025167  0.07895350     0.08400
O1025       O  0.72862594  0.10734375  0.10679559    -0.40400
O1026       O  0.69647755  0.11626424  0.15123196    -0.39600
O1027       O  0.60279996  0.18028875  0.02449450    -0.39600
O1028       O  0.63591586  0.18132088  0.98010961    -0.37300
O1029       O  0.56038243  0.04598763  0.07359926    -0.38200
O1030       O  0.54282365  0.09011111  0.08039849    -0.34400
O1031       O  0.67512544  0.08857324  0.97120461    -0.35800
O1032       O  0.65101940  0.12397565  0.94346513    -0.40100
C1033       C  0.13199365  0.67241156  0.84389143    -0.13800
C1034       C  0.13733903  0.64248373  0.83800544     0.16600
C1035       C  0.16631167  0.63228282  0.83330745     0.02900
C1036       C  0.18922178  0.65185537  0.83327158    -0.12300
C1037       C  0.18415934  0.68204996  0.83753239    -0.03300
C1038       C  0.15506825  0.69225669  0.84358303     0.02200
C1039       C  0.11284233  0.62240741  0.83128331     0.09000
N1040       N  0.17272893  0.60198213  0.82730118     0.65400
H1041       H  0.21113811  0.64319019  0.82870312     0.18300
N1042       N  0.14844625  0.72259344  0.84877484     0.75800
H1043       H  0.10974070  0.68053504  0.84715839     0.09800
C1044       C  0.09318497  0.61427259  0.86002152     0.03500
C1045       C  0.07226808  0.59292051  0.85252419    -0.05200
C1046       C  0.07105167  0.57922624  0.81684211    -0.23600
C1047       C  0.08979065  0.58867696  0.78768722     0.12700
C1048       C  0.11024103  0.61008554  0.79509140    -0.12800
N1049       N  0.09536094  0.62615796  0.89739360     0.64400
H1050       H  0.05802823  0.58599110  0.87512696     0.12300
N1051       N  0.08816688  0.57688392  0.75015293     0.61000
H1052       H  0.12465256  0.61680712  0.77247115     0.08400
O1053       O  0.14533272  0.73276457  0.88187660    -0.40400
O1054       O  0.14073259  0.73788374  0.82069061    -0.39600
O1055       O  0.17938327  0.59291330  0.79450331    -0.39600
O1056       O  0.17659937  0.58544865  0.85544832    -0.37300
O1057       O  0.06889668  0.58646350  0.72759628    -0.38200
O1058       O  0.10874346  0.56081836  0.73766077    -0.34400
O1059       O  0.07610686  0.64406765  0.90919667    -0.35800
O1060       O  0.11352158  0.61521852  0.92046550    -0.40100
C1061       C  0.36132191  0.63266611  0.89786902    -0.13800
C1062       C  0.37023857  0.63679437  0.93539556     0.16600
C1063       C  0.35905874  0.66091471  0.95601176     0.02900
C1064       C  0.33898798  0.68026410  0.93885480    -0.12300
C1065       C  0.32905844  0.67566598  0.90164049    -0.03300
C1066       C  0.34104576  0.65173698  0.88083876     0.02200
C1067       C  0.39133592  0.61553047  0.95196237     0.09000
N1068       N  0.36795406  0.66614251  0.99423691     0.65400
H1069       H  0.33087932  0.69878535  0.95489773     0.18300
N1070       N  0.33373175  0.64696588  0.84194139     0.75800
H1071       H  0.37021789  0.61442865  0.88161789     0.09800
C1072       C  0.38188630  0.59294503  0.97554273     0.03500
C1073       C  0.40187891  0.57160632  0.98808458    -0.05200
C1074       C  0.43145460  0.57181927  0.97699019    -0.23600
C1075       C  0.44088553  0.59477023  0.95348595     0.12700
C1076       C  0.42081392  0.61631082  0.94127288    -0.12800
N1077       N  0.35173183  0.59046791  0.98528095     0.64400
H1078       H  0.39386439  0.55428946  0.00586781     0.12300
N1079       N  0.47065317  0.59664519  0.94173932     0.61000
H1080       H  0.42818243  0.63353064  0.92282976     0.08400
O1081       O  0.31813892  0.62567067  0.83292404    -0.40400
O1082       O  0.34691289  0.66073308  0.81640454    -0.39600
O1083       O  0.38751425  0.68446668  0.00072754    -0.39600
O1084       O  0.35205066  0.65780636  0.02118792    -0.37300
O1085       O  0.47836146  0.58647259  0.90987129    -0.38200
O1086       O  0.48778683  0.61273528  0.95990981    -0.34400
O1087       O  0.33450807  0.57895907  0.96195815    -0.35800
O1088       O  0.34371903  0.59418198  0.01924765    -0.40100
C1089       C  0.37105065  0.91388216  0.90874508    -0.13800
C1090       C  0.37758143  0.88381914  0.91017693     0.16600
C1091       C  0.40702650  0.87461356  0.91483961     0.02900
C1092       C  0.42873155  0.89530210  0.92054362    -0.12300
C1093       C  0.42154251  0.92509995  0.92267895    -0.03300
C1094       C  0.39257573  0.93444959  0.91556174     0.02200
C1095       C  0.35327188  0.86269759  0.90800954     0.09000
N1096       N  0.41500263  0.84437311  0.91661585     0.65400
H1097       H  0.45094985  0.88789011  0.92604740     0.18300
N1098       N  0.38473522  0.96478170  0.91510535     0.75800
H1099       H  0.34892175  0.92147644  0.90316727     0.09800
C1100       C  0.32801394  0.86644982  0.93074537     0.03500
C1101       C  0.30504132  0.84704174  0.92746250    -0.05200
C1102       C  0.30669030  0.82311691  0.90259263    -0.23600
C1103       C  0.33187627  0.81919889  0.87982294     0.12700
C1104       C  0.35472550  0.83908740  0.88243326    -0.12800
N1105       N  0.32575758  0.88922978  0.95848497     0.64400
H1106       H  0.28610456  0.85020125  0.94561247     0.12300
N1107       N  0.33402380  0.79600539  0.85271701     0.61000
H1108       H  0.37343199  0.83634296  0.86384260     0.08400
O1109       O  0.37013009  0.97575925  0.94217937    -0.40400
O1110       O  0.38806433  0.97923805  0.88507914    -0.39600
O1111       O  0.43068380  0.83313035  0.89074817    -0.39600
O1112       O  0.41097805  0.83047432  0.94693245    -0.37300
O1113       O  0.32234099  0.79906481  0.82053336    -0.38200
O1114       O  0.35153641  0.77487762  0.85841597    -0.34400
O1115       O  0.30625276  0.90890397  0.95520093    -0.35800
O1116       O  0.33986747  0.88701308  0.98909828    -0.40100
C1117       C  0.23268867  0.77941422  0.57706025    -0.13800
C1118       C  0.25216367  0.76008847  0.59510947     0.16600
C1119       C  0.27213528  0.74359954  0.57291337     0.02900
C1120       C  0.27251874  0.74688715  0.53336384    -0.12300
C1121       C  0.25313253  0.76635542  0.51498194    -0.03300
C1122       C  0.23275847  0.78254963  0.53754534     0.02200
C1123       C  0.24983350  0.75604242  0.63679950     0.09000
N1124       N  0.29260885  0.72387342  0.59024301     0.65400
H1125       H  0.28836984  0.73434288  0.51705273     0.18300
N1126       N  0.21106873  0.80135999  0.52092247     0.75800
H1127       H  0.21662558  0.79154356  0.59371933     0.09800
C1128       C  0.25357830  0.77944658  0.66227255     0.03500
C1129       C  0.25001763  0.77517058  0.70134741    -0.05200
C1130       C  0.24261945  0.74778804  0.71578990    -0.23600
C1131       C  0.23777667  0.72465586  0.69010422     0.12700
C1132       C  0.24170386  0.72887510  0.65106043    -0.12800
N1133       N  0.26213216  0.80739076  0.64895979     0.64400
H1134       H  0.25415479  0.79311270  0.72056561     0.12300
N1135       N  0.22749038  0.69721104  0.70308855     0.61000
H1136       H  0.23759631  0.71105144  0.63164458     0.08400
O1137       O  0.21279040  0.82861645  0.52498309    -0.40400
O1138       O  0.18772953  0.79071108  0.50854246    -0.39600
O1139       O  0.28960150  0.69674231  0.58637145    -0.39600
O1140       O  0.31606761  0.73343911  0.60372888    -0.37300
O1141       O  0.20130368  0.69510947  0.71375726    -0.38200
O1142       O  0.24308141  0.67443493  0.69875081    -0.34400
O1143       O  0.24373444  0.82824708  0.64837797    -0.35800
O1144       O  0.28885912  0.81243752  0.64416200    -0.40100
C1145       C  0.26940661  0.73342490  0.07248776    -0.13800
C1146       C  0.24839893  0.74771809  0.09532620     0.16600
C1147       C  0.22632668  0.76463012  0.07757573     0.02900
C1148       C  0.22592221  0.76735828  0.03800394    -0.12300
C1149       C  0.24695589  0.75315125  0.01484225    -0.03300
C1150       C  0.26873055  0.73572523  0.03274956     0.02200
C1151       C  0.25094453  0.74645097  0.13753109     0.09000
N1152       N  0.20370465  0.77870064  0.09932448     0.65400
H1153       H  0.20864219  0.78055974  0.02538370     0.18300
N1154       N  0.29102471  0.72100947  0.01137400     0.75800
H1155       H  0.28695201  0.72088964  0.08560246     0.09800
C1156       C  0.25347113  0.71972806  0.15707109     0.03500
C1157       C  0.25690918  0.71950387  0.19660034    -0.05200
C1158       C  0.25765107  0.74556616  0.21773732    -0.23600
C1159       C  0.25524136  0.77237081  0.19802827     0.12700
C1160       C  0.25212602  0.77252424  0.15844553    -0.12800
N1161       N  0.25168319  0.69255485  0.13733973     0.64400
H1162       H  0.25847759  0.69864319  0.21085280     0.12300
N1163       N  0.25676883  0.79970169  0.21746188     0.61000
H1164       H  0.25112400  0.79327104  0.14386225     0.08400
O1165       O  0.28798120  0.69446943  0.00302304    -0.40400
O1166       O  0.31603206  0.73196410  0.00955726    -0.39600
O1167       O  0.20169407  0.80617936  0.10011608    -0.39600
O1168       O  0.18321271  0.76383375  0.11257672    -0.37300
O1169       O  0.28112242  0.81172802  0.22134887    -0.38200
O1170       O  0.23357738  0.81401390  0.22465449    -0.34400
O1171       O  0.27398097  0.67601348  0.13495438    -0.35800
O1172       O  0.22697153  0.68278974  0.12885280    -0.40100
C1173       C  0.15289079  0.67089541  0.32450261    -0.13800
C1174       C  0.15642991  0.64510973  0.34561749     0.16600
C1175       C  0.18239030  0.64101069  0.36675080     0.02900
C1176       C  0.20463152  0.66150684  0.36474146    -0.12300
C1177       C  0.20165870  0.68675720  0.34249927    -0.03300
C1178       C  0.17501303  0.69172149  0.32299126     0.02200
C1179       C  0.13525404  0.62091422  0.34069383     0.09000
N1180       N  0.18661481  0.61593796  0.39025542     0.65400
H1181       H  0.22454488  0.65746769  0.38063037     0.18300
N1182       N  0.17083751  0.71663056  0.29922203     0.75800
H1183       H  0.13353251  0.67418236  0.30729595     0.09800
C1184       C  0.10476297  0.62482354  0.34552759     0.03500
C1185       C  0.08577737  0.60185477  0.33726904    -0.05200
C1186       C  0.09649482  0.57486305  0.32353529    -0.23600
C1187       C  0.12708567  0.57090829  0.31950629     0.12700
C1188       C  0.14589919  0.59373746  0.32784230    -0.12800
N1189       N  0.09267660  0.65205941  0.35839437     0.64400
H1190       H  0.06245304  0.60553980  0.34037994     0.12300
N1191       N  0.13962298  0.54380997  0.30687649     0.61000
H1192       H  0.16911194  0.59035388  0.32315856     0.08400
O1193       O  0.15454172  0.73751646  0.31023953    -0.40400
O1194       O  0.17916010  0.71554751  0.26509385    -0.39600
O1195       O  0.20716096  0.59798055  0.38309918    -0.39600
O1196       O  0.17338167  0.61457534  0.42159345    -0.37300
O1197       O  0.15088079  0.54220937  0.27422718    -0.38200
O1198       O  0.14586152  0.52442175  0.33100623    -0.34400
O1199       O  0.07802707  0.66781817  0.33579443    -0.35800
O1200       O  0.09185434  0.65759177  0.39346860    -0.40100
C1201       C  0.37008203  0.65828019  0.46286128    -0.13800
C1202       C  0.38773685  0.64245874  0.43702781     0.16600
C1203       C  0.38534720  0.64885655  0.39804756     0.02900
C1204       C  0.36461368  0.66957690  0.38556142    -0.12300
C1205       C  0.34564809  0.68420258  0.41103613    -0.03300
C1206       C  0.34927205  0.67913641  0.45026665     0.02200
C1207       C  0.40564933  0.61701334  0.45051260     0.09000
N1208       N  0.40216382  0.63292042  0.37042290     0.65400
H1209       H  0.36248616  0.67332914  0.35533552     0.18300
N1210       N  0.33066256  0.69327212  0.47747887     0.75800
H1211       H  0.37161055  0.65350671  0.49288909     0.09800
C1212       C  0.43645628  0.61635437  0.44934624     0.03500
C1213       C  0.45204568  0.59081384  0.45955923    -0.05200
C1214       C  0.43755182  0.56538236  0.47057396    -0.23600
C1215       C  0.40662623  0.56639011  0.47213490     0.12700
C1216       C  0.39116351  0.59203354  0.46245272    -0.12800
N1217       N  0.45225079  0.64136047  0.43777213     0.64400
H1218       H  0.47567080  0.59068505  0.45771848     0.12300
N1219       N  0.39041188  0.54148813  0.48299624     0.61000
H1220       H  0.36749622  0.59216508  0.46321314     0.08400
O1221       O  0.34092534  0.71263381  0.49888603    -0.40400
O1222       O  0.30632892  0.68237453  0.48535065    -0.39600
O1223       O  0.39540028  0.60711115  0.36229522    -0.39600
O1224       O  0.41919548  0.64636797  0.34878480    -0.37300
O1225       O  0.38295571  0.53848310  0.51720272    -0.38200
O1226       O  0.37868226  0.52606917  0.45775165    -0.34400
O1227       O  0.45657605  0.66155486  0.46137967    -0.35800
O1228       O  0.46702405  0.64033474  0.40753299    -0.40100
C1229       C  0.39414605  0.91371332  0.38385644    -0.13800
C1230       C  0.39490974  0.89069788  0.40990349     0.16600
C1231       C  0.41804510  0.88886501  0.43621195     0.02900
C1232       C  0.43936923  0.91051821  0.43701735    -0.12300
C1233       C  0.43794314  0.93419687  0.41186117    -0.03300
C1234       C  0.41552876  0.93514343  0.38431222     0.02200
C1235       C  0.37084092  0.86939362  0.40969491     0.09000
N1236       N  0.41927020  0.86595238  0.46350691     0.65400
H1237       H  0.45637822  0.90944649  0.45834327     0.18300
N1238       N  0.41489205  0.95715452  0.35566579     0.75800
H1239       H  0.37688731  0.91493289  0.36286964     0.09800
C1240       C  0.34244439  0.87804700  0.42080438     0.03500
C1241       C  0.31959839  0.85831817  0.41869295    -0.05200
C1242       C  0.32415120  0.82961658  0.40522193    -0.23600
C1243       C  0.35272485  0.82102700  0.39368512     0.12700
C1244       C  0.37574915  0.84083365  0.39631197    -0.12800
N1245       N  0.33653706  0.90685585  0.43477576     0.64400
H1246       H  0.29809748  0.86565076  0.42795441     0.12300
N1247       N  0.35849639  0.79291201  0.37742308     0.61000
H1248       H  0.39740744  0.83413953  0.38688511     0.08400
O1249       O  0.39379487  0.97524962  0.35420835    -0.40400
O1250       O  0.43298213  0.95574022  0.32864421    -0.39600
O1251       O  0.43649865  0.84445718  0.45851310    -0.39600
O1252       O  0.40601951  0.86898140  0.49472307    -0.37300
O1253       O  0.35613741  0.78939302  0.34204159    -0.38200
O1254       O  0.37054468  0.77318637  0.39715806    -0.34400
O1255       O  0.32470208  0.92560779  0.41331738    -0.35800
O1256       O  0.33843638  0.91198415  0.46986757    -0.40100
C1257       C  0.07578290  0.38575514  0.71290825    -0.13800
C1258       C  0.10581998  0.38811734  0.71965120     0.16600
C1259       C  0.11591678  0.41271193  0.73925258     0.02900
C1260       C  0.09628551  0.43510666  0.75014125    -0.12300
C1261       C  0.06632586  0.43371714  0.74161864    -0.03300
C1262       C  0.05601770  0.40822311  0.72359724     0.02200
C1263       C  0.12674638  0.36731813  0.70107938     0.09000
N1264       N  0.14637869  0.41601683  0.74627385     0.65400
H1265       H  0.10479056  0.45429269  0.76394579     0.18300
N1266       N  0.02612488  0.40598636  0.71253040     0.75800
H1267       H  0.06784699  0.36713212  0.69728949     0.09800
C1268       C  0.13640680  0.34128859  0.71846905     0.03500
C1269       C  0.15695902  0.32291849  0.69999529    -0.05200
C1270       C  0.16798415  0.32977654  0.66377690    -0.23600
C1271       C  0.15733164  0.35562669  0.64606145     0.12700
C1272       C  0.13727714  0.37409730  0.66495265    -0.12800
N1273       N  0.12542065  0.33314938  0.75475975     0.64400
H1274       H  0.16433152  0.30321430  0.71423041     0.12300
N1275       N  0.16584783  0.36316499  0.60840073     0.61000
H1276       H  0.12960063  0.39386686  0.65107854     0.08400
O1277       O  0.00908916  0.39067291  0.73187040    -0.40400
O1278       O  0.01812404  0.41508235  0.68035378    -0.39600
O1279       O  0.16186152  0.42933491  0.72261364    -0.39600
O1280       O  0.15676495  0.40959872  0.77837988    -0.37300
O1281       O  0.15175376  0.35335905  0.58055311    -0.38200
O1282       O  0.18347800  0.38356833  0.60332736    -0.34400
O1283       O  0.10447137  0.31578009  0.75673619    -0.35800
O1284       O  0.13985512  0.33886057  0.78423231    -0.40100
C1285       C  0.33098629  0.36787426  0.59511989    -0.13800
C1286       C  0.35377157  0.36094247  0.56974100     0.16600
C1287       C  0.35379962  0.33372019  0.55093810     0.02900
C1288       C  0.33090152  0.31444266  0.55699724    -0.12300
C1289       C  0.30732983  0.32206934  0.58083278    -0.03300
C1290       C  0.30772953  0.34894041  0.60044305     0.02200
C1291       C  0.37681142  0.38269469  0.56264302     0.09000
N1292       N  0.37579687  0.32619540  0.52361575     0.65400
H1293       H  0.33078832  0.29404644  0.54136376     0.18300
N1294       N  0.28494861  0.35711221  0.62634904     0.75800
H1295       H  0.33107407  0.38831905  0.61061346     0.09800
C1296       C  0.36938681  0.41112021  0.55041882     0.03500
C1297       C  0.39125507  0.43128484  0.54390917    -0.05200
C1298       C  0.42090400  0.42389464  0.54907574    -0.23600
C1299       C  0.42842052  0.39553935  0.56194377     0.12700
C1300       C  0.40637934  0.37530261  0.56868767    -0.12800
N1301       N  0.33972856  0.41956592  0.54301910     0.64400
H1302       H  0.38487364  0.45284511  0.53405620     0.12300
N1303       N  0.45824229  0.38647907  0.56667203     0.61000
H1304       H  0.41240772  0.35365177  0.57851430     0.08400
O1305       O  0.26521659  0.37497356  0.61603255    -0.40400
O1306       O  0.28774965  0.35115844  0.66109161    -0.39600
O1307       O  0.39480834  0.30682982  0.53137399    -0.39600
O1308       O  0.37282689  0.33459389  0.48976404    -0.37300
O1309       O  0.46906673  0.38529949  0.59953652    -0.38200
O1310       O  0.47170906  0.37437486  0.53941232    -0.34400
O1311       O  0.32674152  0.43725629  0.56510919    -0.35800
O1312       O  0.32871376  0.41405790  0.51105871    -0.40100
C1313       C  0.36346789  0.13480084  0.58590368    -0.13800
C1314       C  0.37477081  0.14015728  0.54970470     0.16600
C1315       C  0.36369539  0.16425285  0.52907615     0.02900
C1316       C  0.34119298  0.18197676  0.54435076    -0.12300
C1317       C  0.32911495  0.17614533  0.58017737    -0.03300
C1318       C  0.34095418  0.15239341  0.60125810     0.02200
C1319       C  0.39541670  0.11840043  0.53228979     0.09000
N1320       N  0.37522123  0.17106154  0.49256677     0.65400
H1321       H  0.33289430  0.20017258  0.52775228     0.18300
N1322       N  0.33039918  0.14563794  0.63830903     0.75800
H1323       H  0.37150149  0.11618402  0.60192798     0.09800
C1324       C  0.42269843  0.11123166  0.54868690     0.03500
C1325       C  0.44032951  0.08887282  0.53287292    -0.05200
C1326       C  0.43119433  0.07284776  0.50097942    -0.23600
C1327       C  0.40374787  0.08025882  0.48465234     0.12700
C1328       C  0.38636926  0.10278252  0.50030473    -0.12800
N1329       N  0.43303465  0.12677688  0.58103620     0.64400
H1330       H  0.46135285  0.08412314  0.54573977     0.12300
N1331       N  0.39288619  0.06508616  0.45231627     0.61000
H1332       H  0.36519268  0.10761908  0.48786595     0.08400
O1333       O  0.34412353  0.15432188  0.66709739    -0.40400
O1334       O  0.31117509  0.12654622  0.64210196    -0.39600
O1335       O  0.36014273  0.16656717  0.46326745    -0.39600
O1336       O  0.39790618  0.18609372  0.49016789    -0.37300
O1337       O  0.37649879  0.04361402  0.45701264    -0.38200
O1338       O  0.39494049  0.07638774  0.41986672    -0.34400
O1339       O  0.43338528  0.11457011  0.61306000    -0.35800
O1340       O  0.44702036  0.14989799  0.57631951    -0.40100
C1341       C  0.23377397  0.27189333  0.90977762    -0.13800
C1342       C  0.25613430  0.25651154  0.89076308     0.16600
C1343       C  0.27981239  0.24491677  0.91181461     0.02900
C1344       C  0.28053946  0.24874746  0.95128736    -0.12300
C1345       C  0.25800874  0.26378598  0.97056483    -0.03300
C1346       C  0.23446090  0.27562810  0.94921584     0.02200
C1347       C  0.25439285  0.25345519  0.84891984     0.09000
N1348       N  0.30393985  0.23049736  0.89341380     0.65400
H1349       H  0.29937915  0.24094736  0.96685414     0.18300
N1350       N  0.21078460  0.29113205  0.96707004     0.75800
H1351       H  0.21550555  0.28093218  0.89385589     0.09800
C1352       C  0.25098229  0.22608438  0.83136917     0.03500
C1353       C  0.24962633  0.22420827  0.79177149    -0.05200
C1354       C  0.25077086  0.24924962  0.76894498    -0.23600
C1355       C  0.25348461  0.27671268  0.78663228     0.12700
C1356       C  0.25541305  0.27855456  0.82630032    -0.12800
N1357       N  0.24745027  0.20021025  0.85332092     0.64400
H1358       H  0.24702120  0.20296546  0.77877182     0.12300
N1359       N  0.25569008  0.30273068  0.76476860     0.61000
H1360       H  0.25796382  0.29970646  0.83956205     0.08400
O1361       O  0.18794411  0.27774956  0.97574306    -0.40400
O1362       O  0.21035848  0.31864939  0.96704586    -0.39600
O1363       O  0.32358256  0.24553761  0.87842219    -0.39600
O1364       O  0.30886635  0.20374502  0.89944484    -0.37300
O1365       O  0.23307059  0.31810495  0.75840114    -0.38200
O1366       O  0.28051011  0.31299187  0.75804332    -0.34400
O1367       O  0.22440533  0.19718138  0.87244304    -0.35800
O1368       O  0.26403870  0.17833287  0.84745382    -0.40100
C1369       C  0.25900281  0.26886184  0.32730210    -0.13800
C1370       C  0.25695131  0.24303116  0.34826874     0.16600
C1371       C  0.25715171  0.21612337  0.32868402     0.02900
C1372       C  0.26004097  0.21556131  0.28900362    -0.12300
C1373       C  0.26191289  0.24143566  0.26784159    -0.03300
C1374       C  0.26139035  0.26836680  0.28762467     0.02200
C1375       C  0.25375059  0.24510798  0.39032399     0.09000
N1376       N  0.25260498  0.18934152  0.34828472     0.65400
H1377       H  0.25976466  0.19467230  0.27456144     0.18300
N1378       N  0.26419204  0.29543502  0.26814200     0.75800
H1379       H  0.25894123  0.28968443  0.34195597     0.09800
C1380       C  0.27416149  0.23226984  0.41562356     0.03500
C1381       C  0.27046973  0.23588292  0.45500300    -0.05200
C1382       C  0.24721179  0.25288806  0.46995376    -0.23600
C1383       C  0.22669079  0.26535794  0.44445656     0.12700
C1384       C  0.23010565  0.26133495  0.40526506    -0.12800
N1385       N  0.29975981  0.21724020  0.40186338     0.64400
H1386       H  0.28671222  0.22644378  0.47390970     0.12300
N1387       N  0.20181006  0.28166204  0.45783731     0.61000
H1388       H  0.21411939  0.27107648  0.38623927     0.08400
O1389       O  0.28929533  0.30513535  0.26174765    -0.40400
O1390       O  0.24211794  0.31207471  0.26426883    -0.39600
O1391       O  0.22786853  0.18450504  0.36247289    -0.39600
O1392       O  0.27084858  0.16851834  0.34457156    -0.37300
O1393       O  0.20159170  0.30913567  0.45603880    -0.38200
O1394       O  0.17841829  0.26866703  0.46490296    -0.34400
O1395       O  0.31927012  0.23136161  0.38510222    -0.35800
O1396       O  0.30543671  0.19157812  0.41281346    -0.40100
C1397       C  0.15204617  0.34438988  0.21261134    -0.13800
C1398       C  0.15137139  0.37352577  0.20075237     0.16600
C1399       C  0.17216803  0.38283774  0.17417622     0.02900
C1400       C  0.19294564  0.36306212  0.15965852    -0.12300
C1401       C  0.19342024  0.33362527  0.17063732    -0.03300
C1402       C  0.17272788  0.32439470  0.19782953     0.02200
C1403       C  0.12950837  0.39445674  0.21677786     0.09000
N1404       N  0.17171488  0.41215197  0.16048171     0.65400
H1405       H  0.20836593  0.37082002  0.13886365     0.18300
N1406       N  0.17197343  0.29481572  0.21035307     0.75800
H1407       H  0.13644297  0.33712391  0.23349920     0.09800
C1408       C  0.09925044  0.39059264  0.21225976     0.03500
C1409       C  0.07950763  0.41275649  0.22354714    -0.05200
C1410       C  0.08949834  0.43898054  0.23908121    -0.23600
C1411       C  0.11966347  0.44168749  0.24632610     0.12700
C1412       C  0.13928246  0.41953914  0.23515373    -0.12800
N1413       N  0.08840899  0.36533857  0.19359296     0.64400
H1414       H  0.05646992  0.41020280  0.21776061     0.12300
N1415       N  0.13077204  0.46679711  0.26500310     0.61000
H1416       H  0.16242992  0.42221998  0.24011217     0.08400
O1417       O  0.15412207  0.27760101  0.19546430    -0.40400
O1418       O  0.18492733  0.28753741  0.24054755    -0.39600
O1419       O  0.19257153  0.42873921  0.16809050    -0.39600
O1420       O  0.15262305  0.42012900  0.13669201    -0.37300
O1421       O  0.12848008  0.46896282  0.30057777    -0.38200
O1422       O  0.14795086  0.48318050  0.24749017    -0.34400
O1423       O  0.07531164  0.34630885  0.21251861    -0.35800
O1424       O  0.08788885  0.36429541  0.15782619    -0.40100
C1425       C  0.37939429  0.33447349  0.06098187    -0.13800
C1426       C  0.37827857  0.36085192  0.08133197     0.16600
C1427       C  0.35414690  0.36651260  0.10545156     0.02900
C1428       C  0.33073861  0.34730185  0.10632725    -0.12300
C1429       C  0.33112546  0.32158033  0.08459305    -0.03300
C1430       C  0.35628443  0.31475119  0.06275432     0.02200
C1431       C  0.39968668  0.38417527  0.07302001     0.09000
N1432       N  0.35317195  0.39178134  0.12932146     0.65400
H1433       H  0.31205913  0.35257179  0.12417574     0.18300
N1434       N  0.35804497  0.28879098  0.04037147     0.75800
H1435       H  0.39750153  0.32985182  0.04194910     0.09800
C1436       C  0.43021708  0.38013487  0.07668477     0.03500
C1437       C  0.44899434  0.40343397  0.06940880    -0.05200
C1438       C  0.43797056  0.43091516  0.05789695    -0.23600
C1439       C  0.40745734  0.43414378  0.05195929     0.12700
C1440       C  0.38888270  0.41106759  0.05973804    -0.12800
N1441       N  0.44245153  0.35289915  0.08903924     0.64400
H1442       H  0.47222390  0.40020416  0.07400468     0.12300
N1443       N  0.39483481  0.46054418  0.03729295     0.61000
H1444       H  0.36564863  0.41414573  0.05495698     0.08400
O1445       O  0.37684285  0.26934770  0.04860448    -0.40400
O1446       O  0.34545973  0.28802916  0.00855852    -0.39600
O1447       O  0.33444021  0.41178363  0.12327817    -0.39600
O1448       O  0.36736106  0.39168604  0.15998892    -0.37300
O1449       O  0.39405751  0.46446849  0.00189157    -0.38200
O1450       O  0.37976970  0.47701015  0.05877618    -0.34400
O1451       O  0.45426867  0.33586328  0.06508991    -0.35800
O1452       O  0.44690888  0.34876427  0.12393813    -0.40100
C1453       C  0.42634610  0.11083426  0.02254630    -0.13800
C1454       C  0.39626388  0.10634402  0.02291251     0.16600
C1455       C  0.38549850  0.07898560  0.01248002     0.02900
C1456       C  0.40501361  0.05596335  0.00444469    -0.12300
C1457       C  0.43540207  0.05973912  0.00623163    -0.03300
C1458       C  0.44600216  0.08794113  0.01402241     0.02200
C1459       C  0.37678360  0.12915149  0.03905822     0.09000
N1460       N  0.35479369  0.07418894  0.01055552     0.65400
H1461       H  0.39624371  0.03483209  0.99753817     0.18300
N1462       N  0.47653518  0.09336339  0.01633329     0.75800
H1463       H  0.43467117  0.13192345  0.03061015     0.09800
C1464       C  0.36606232  0.12642638  0.07616750     0.03500
C1465       C  0.34728976  0.14787486  0.09105408    -0.05200
C1466       C  0.33898737  0.17269899  0.06986222    -0.23600
C1467       C  0.35059509  0.17565988  0.03285975     0.12700
C1468       C  0.36927662  0.15386711  0.01781338    -0.12800
N1469       N  0.37487316  0.10241088  0.09957289     0.64400
H1470       H  0.33950220  0.14506216  0.11981784     0.12300
N1471       N  0.34272429  0.19970694  0.00931105     0.61000
H1472       H  0.37770791  0.15609652  0.98924760     0.08400
O1473       O  0.48755131  0.09929653  0.04814234    -0.40400
O1474       O  0.49046504  0.09916890  0.98648509    -0.39600
O1475       O  0.34095894  0.08129341  0.98095116    -0.39600
O1476       O  0.34292458  0.05792638  0.03461884    -0.37300
O1477       O  0.35979165  0.22085590  0.00715031    -0.38200
O1478       O  0.32485122  0.19555747  0.98277024    -0.34400
O1479       O  0.39978914  0.10228175  0.11482771    -0.35800
O1480       O  0.35615666  0.08448728  0.11057947    -0.40100
C1481       C  0.86009275  0.15951729  0.67521216    -0.13800
C1482       C  0.85695049  0.13176237  0.65883522     0.16600
C1483       C  0.83042512  0.12521937  0.64070927     0.02900
C1484       C  0.80744857  0.14575066  0.64038104    -0.12300
C1485       C  0.81003918  0.17313990  0.65790464    -0.03300
C1486       C  0.83695505  0.18018588  0.67490183     0.02200
C1487       C  0.88012724  0.10883112  0.66397260     0.09000
N1488       N  0.82632970  0.09759010  0.62280309     0.65400
H1489       H  0.78717450  0.13995132  0.62672001     0.18300
N1490       N  0.84041862  0.20720364  0.69454106     0.75800
H1491       H  0.88009385  0.16467751  0.68993466     0.09800
C1492       C  0.90907144  0.11240320  0.65130485     0.03500
C1493       C  0.92984776  0.08968019  0.65578839    -0.05200
C1494       C  0.92223216  0.06314117  0.67259957    -0.23600
C1495       C  0.89358508  0.06018064  0.68680165     0.12700
C1496       C  0.87298723  0.08289328  0.68246910    -0.12800
N1497       N  0.91731675  0.13837690  0.63219083     0.64400
H1498       H  0.95167304  0.09235359  0.64458360     0.12300
N1499       N  0.88527347  0.03453638  0.70668616     0.61000
H1500       H  0.85120961  0.08028591  0.69384281     0.08400
O1501       O  0.85383750  0.22764543  0.67879768    -0.40400
O1502       O  0.83434063  0.20894303  0.72941491    -0.39600
O1503       O  0.80994355  0.07924574  0.63815634    -0.39600
O1504       O  0.83387850  0.09406955  0.58863194    -0.37300
O1505       O  0.89105815  0.03213577  0.74154198    -0.38200
O1506       O  0.86798292  0.01696701  0.69136708    -0.34400
O1507       O  0.93271841  0.15678903  0.64919702    -0.35800
O1508       O  0.91367088  0.14041305  0.59681782    -0.40100
C1509       C  0.90398770  0.89237864  0.79931138    -0.13800
C1510       C  0.88409000  0.88025819  0.77373913     0.16600
C1511       C  0.88356371  0.89017185  0.73599734     0.02900
C1512       C  0.90255995  0.91209419  0.72465769    -0.12300
C1513       C  0.92194490  0.92498278  0.75045722    -0.03300
C1514       C  0.92269285  0.91468622  0.78818910     0.02200
C1515       C  0.86194628  0.85995470  0.78840591     0.09000
N1516       N  0.86270081  0.87951755  0.70946509     0.65400
H1517       H  0.90164139  0.91954772  0.69553387     0.18300
N1518       N  0.94063759  0.92796329  0.81625759     0.75800
H1519       H  0.90408895  0.88530647  0.82862137     0.09800
C1520       C  0.86230413  0.82993292  0.77968856     0.03500
C1521       C  0.84185499  0.81158716  0.79667327    -0.05200
C1522       C  0.82060391  0.82267633  0.82214036    -0.23600
C1523       C  0.81979942  0.85313659  0.82944541     0.12700
C1524       C  0.84039657  0.87119979  0.81279054    -0.12800
N1525       N  0.88385527  0.81758323  0.75472784     0.64400
H1526       H  0.84311746  0.78843770  0.79053242     0.12300
N1527       N  0.79800806  0.86644821  0.85321070     0.61000
H1528       H  0.83965148  0.89434989  0.81917092     0.08400
O1529       O  0.95935318  0.91260592  0.83377000    -0.40400
O1530       O  0.93345982  0.95278994  0.82919444    -0.39600
O1531       O  0.83647899  0.88839394  0.71154540    -0.39600
O1532       O  0.87142227  0.86632413  0.67994756    -0.37300
O1533       O  0.80296608  0.86924316  0.88823380    -0.38200
O1534       O  0.77789447  0.88162879  0.83817032    -0.34400
O1535       O  0.90827856  0.80943980  0.76790933    -0.35800
O1536       O  0.87643094  0.80921215  0.72205696    -0.40100
C1537       C  0.14119764  0.85088989  0.77135645    -0.13800
C1538       C  0.12962337  0.87309517  0.79467961     0.16600
C1539       C  0.13795379  0.87426175  0.83302743     0.02900
C1540       C  0.15797322  0.85363482  0.84739105    -0.12300
C1541       C  0.16982705  0.83127590  0.82423253    -0.03300
C1542       C  0.16096427  0.82989263  0.78579526     0.02200
C1543       C  0.10874734  0.89494925  0.77887551     0.09000
N1544       N  0.12643316  0.89653154  0.85761304     0.65400
H1545       H  0.16416541  0.85510456  0.87698883     0.18300
N1546       N  0.17240442  0.80791319  0.76073877     0.75800
H1547       H  0.13481308  0.84984642  0.74179296     0.09800
C1548       C  0.11854399  0.91904507  0.75826323     0.03500
C1549       C  0.09847870  0.94040204  0.74579854    -0.05200
C1550       C  0.06845351  0.93846389  0.75387615    -0.23600
C1551       C  0.05861795  0.91348300  0.77323314     0.12700
C1552       C  0.07880162  0.89213059  0.78561015    -0.12800
N1553       N  0.14901106  0.92297895  0.75176220     0.64400
H1554       H  0.10668422  0.95932058  0.73122932     0.12300
N1555       N  0.02860273  0.91046833  0.78322368     0.61000
H1556       H  0.07112630  0.87358058  0.80145230     0.08400
O1557       O  0.19314438  0.81385299  0.73867825    -0.40400
O1558       O  0.15839351  0.78483619  0.75558469    -0.39600
O1559       O  0.10593202  0.89082136  0.88016214    -0.39600
O1560       O  0.13935955  0.92045511  0.86058410    -0.37300
O1561       O  0.01120754  0.89943103  0.75971763    -0.38200
O1562       O  0.02086236  0.91364182  0.81737552    -0.34400
O1563       O  0.15915053  0.92079365  0.71855596    -0.35800
O1564       O  0.16472011  0.93304994  0.77790799    -0.40100
C1565       C  0.13553152  0.17108133  0.64394537    -0.13800
C1566       C  0.13896148  0.14371039  0.66138593     0.16600
C1567       C  0.16617275  0.13628994  0.67793700     0.02900
C1568       C  0.18939680  0.15552535  0.67571501    -0.12300
C1569       C  0.18615136  0.18287538  0.65827616    -0.03300
C1570       C  0.15865377  0.19077770  0.64268667     0.02200
C1571       C  0.11479506  0.12234543  0.66069583     0.09000
N1572       N  0.17029684  0.10964932  0.69837723     0.65400
H1573       H  0.20999173  0.14923359  0.68875364     0.18300
N1574       N  0.15411976  0.21816140  0.62418756     0.75800
H1575       H  0.11498396  0.17701020  0.63056443     0.09800
C1576       C  0.08641137  0.12944710  0.67411060     0.03500
C1577       C  0.06528626  0.10773137  0.67636605    -0.05200
C1578       C  0.07215207  0.07880142  0.66622497    -0.23600
C1579       C  0.09981111  0.07210676  0.65061513     0.12700
C1580       C  0.12063379  0.09387758  0.64742471    -0.12800
N1581       N  0.07944131  0.15787983  0.68860456     0.64400
H1582       H  0.04421943  0.11302407  0.68895186     0.12300
N1583       N  0.10722237  0.04309968  0.63856602     0.61000
H1584       H  0.14185772  0.08826457  0.63555619     0.08400
O1585       O  0.14181722  0.23899169  0.64190285    -0.40400
O1586       O  0.15736210  0.21982362  0.58871503    -0.39600
O1587       O  0.18831916  0.09056287  0.68638291    -0.39600
O1588       O  0.15977074  0.10736234  0.73130527    -0.37300
O1589       O  0.10160732  0.03529396  0.60503982    -0.38200
O1590       O  0.12374434  0.02728392  0.65884834    -0.34400
O1591       O  0.06152477  0.17413528  0.67102947    -0.35800
O1592       O  0.08689471  0.16452714  0.72193375    -0.40100
C1593       C  0.00334654  0.02331566  0.49979290    -0.13800
C1594       C  0.99850554  0.99763508  0.47923943     0.16600
C1595       C  0.99027158  0.97240100  0.49876188     0.02900
C1596       C  0.98648511  0.97327651  0.53824043    -0.12300
C1597       C  0.99133526  0.99893973  0.55910450    -0.03300
C1598       C  0.00005095  0.02413789  0.53941446     0.02200
C1599       C  0.00310339  0.99729707  0.43757921     0.09000
N1600       N  0.98612934  0.94561002  0.47887326     0.65400
H1601       H  0.98009191  0.95360618  0.55272220     0.18300
N1602       N  0.00482864  0.05093761  0.55902284     0.75800
H1603       H  0.00983568  0.04280647  0.48497274     0.09800
C1604       C  0.98064452  0.00578937  0.41241435     0.03500
C1605       C  0.98592333  0.00616052  0.37320772    -0.05200
C1606       C  0.01361001  0.99876913  0.35857040    -0.23600
C1607       C  0.03602168  0.98993167  0.38376934     0.12700
C1608       C  0.03057771  0.98914515  0.42294753    -0.12800
N1609       N  0.95262208  0.01488285  0.42640740     0.64400
H1610       H  0.96858496  0.01317910  0.35421056     0.12300
N1611       N  0.06413989  0.98094580  0.36986900     0.61000
H1612       H  0.04792135  0.98237389  0.44207903     0.08400
O1613       O  0.98443326  0.06978499  0.56135292    -0.40400
O1614       O  0.03047060  0.05780199  0.56793625    -0.39600
O1615       O  0.00561847  0.92578764  0.48020117    -0.39600
O1616       O  0.96145673  0.94009239  0.46501801    -0.37300
O1617       O  0.06891948  0.95451930  0.36139611    -0.38200
O1618       O  0.08528427  0.99804645  0.37235443    -0.34400
O1619       O  0.94663530  0.04173088  0.42996075    -0.35800
O1620       O  0.93245466  0.99665140  0.42870233    -0.40100
C1621       C  0.03405795  0.99943191  0.91801270    -0.13800
C1622       C  0.00799433  0.00548185  0.93750063     0.16600
C1623       C  0.98221102  0.01123655  0.91676284     0.02900
C1624       C  0.98286130  0.01070563  0.87689734    -0.12300
C1625       C  0.00913628  0.00512963  0.85736112    -0.03300
C1626       C  0.03489327  0.99937365  0.87836344     0.02200
C1627       C  0.00832799  0.00503395  0.97950461     0.09000
N1628       N  0.95528948  0.01761143  0.93584072     0.65400
H1629       H  0.96297369  0.01533012  0.86120830     0.18300
N1630       N  0.06199521  0.99271970  0.85976741     0.75800
H1631       H  0.05391948  0.99473764  0.93374722     0.09800
C1632       C  0.01062599  0.97843273  0.99910621     0.03500
C1633       C  0.01186138  0.97834697  0.03872509    -0.05200
C1634       C  0.01113876  0.00449958  0.05959233    -0.23600
C1635       C  0.00964912  0.03124314  0.03993841     0.12700
C1636       C  0.00818434  0.03130777  0.00008683    -0.12800
N1637       N  0.01084676  0.95127479  0.97910689     0.64400
H1638       H  0.01269638  0.95761142  0.05338840     0.12300
N1639       N  0.00793848  0.05833829  0.06001140     0.61000
H1640       H  0.00676440  0.05189591  0.98515283     0.08400
O1641       O  0.06840607  0.96666069  0.85102098    -0.40400
O1642       O  0.08125621  0.01192181  0.85760590    -0.39600
O1643       O  0.94685984  0.04378280  0.94013027    -0.39600
O1644       O  0.93789251  0.99731803  0.94269282    -0.37300
O1645       O  0.03057141  0.07329667  0.06374617    -0.38200
O1646       O  0.98326830  0.06970353  0.06753814    -0.34400
O1647       O  0.03454495  0.93709386  0.97495053    -0.35800
O1648       O  0.98701074  0.93926448  0.97147785    -0.40100
C1649       C  0.88821442  0.07922745  0.15500406    -0.13800
C1650       C  0.89532538  0.10678064  0.16901049     0.16600
C1651       C  0.92369813  0.11128479  0.18297220     0.02900
C1652       C  0.94438161  0.08826411  0.18252033    -0.12300
C1653       C  0.93712444  0.06030782  0.16928098    -0.03300
C1654       C  0.90850541  0.05606112  0.15528739     0.02200
C1655       C  0.87181580  0.12946174  0.17118804     0.09000
N1656       N  0.93126628  0.13842324  0.19999271     0.65400
H1657       H  0.96596036  0.09213074  0.19380611     0.18300
N1658       N  0.89939126  0.02837266  0.14146583     0.75800
H1659       H  0.86639601  0.07550430  0.14436218     0.09800
C1660       C  0.87263012  0.15564825  0.15040860     0.03500
C1661       C  0.84878618  0.17540442  0.15204840    -0.05200
C1662       C  0.82325745  0.16871987  0.17222015    -0.23600
C1663       C  0.82253436  0.14216542  0.19263126     0.12700
C1664       C  0.84695491  0.12338076  0.19261297    -0.12800
N1665       N  0.89619665  0.16124529  0.12496494     0.64400
H1666       H  0.84954035  0.19525595  0.13552825     0.12300
N1667       N  0.79718647  0.13345822  0.21312118     0.61000
H1668       H  0.84606237  0.10315919  0.20837199     0.08400
O1669       O  0.89889671  0.02359291  0.10619992    -0.40400
O1670       O  0.88662794  0.01121742  0.16361048    -0.39600
O1671       O  0.92384627  0.14361396  0.23388012    -0.39600
O1672       O  0.95036306  0.15389729  0.18456540    -0.37300
O1673       O  0.77639718  0.12224124  0.19512026    -0.38200
O1674       O  0.79927844  0.12883514  0.24828083    -0.34400
O1675       O  0.89924792  0.14584582  0.09541559    -0.35800
O1676       O  0.91002403  0.18465585  0.12789616    -0.40100
C1677       C  0.93073902  0.88195348  0.29116354    -0.13800
C1678       C  0.90372854  0.87738844  0.27366538     0.16600
C1679       C  0.89595963  0.89409938  0.24173370     0.02900
C1680       C  0.91488938  0.91531648  0.22818885    -0.12300
C1681       C  0.94184864  0.92056377  0.24597415    -0.03300
C1682       C  0.94983905  0.90316863  0.27764142     0.02200
C1683       C  0.88270341  0.85724966  0.29124507     0.09000
N1684       N  0.86834354  0.89057210  0.22365019     0.65400
H1685       H  0.90809955  0.92803144  0.20378427     0.18300
N1686       N  0.97688291  0.90706844  0.29699849     0.75800
H1687       H  0.93677561  0.86934656  0.31599640     0.09800
C1688       C  0.87892103  0.82866526  0.27770575     0.03500
C1689       C  0.85843163  0.81058560  0.29498675    -0.05200
C1690       C  0.84155398  0.82034463  0.32618092    -0.23600
C1691       C  0.84554269  0.84925999  0.33953568     0.12700
C1692       C  0.86591085  0.86722412  0.32201416    -0.12800
N1693       N  0.89638068  0.81738732  0.24720084     0.64400
H1694       H  0.85617215  0.78858571  0.28426190     0.12300
N1695       N  0.82904371  0.86099688  0.37068296     0.61000
H1696       H  0.86858271  0.88926471  0.33247809     0.08400
O1697       O  0.99797840  0.88953621  0.29088667    -0.40400
O1698       O  0.97798825  0.92451302  0.32470643    -0.39600
O1699       O  0.84740288  0.90780169  0.23175056    -0.39600
O1700       O  0.86659457  0.87438254  0.19476329    -0.37300
O1701       O  0.84049922  0.86209494  0.40318737    -0.38200
O1702       O  0.80551303  0.87494760  0.36442301    -0.34400
O1703       O  0.92087158  0.80555124  0.25431361    -0.35800
O1704       O  0.88506784  0.81394037  0.21491956    -0.40100
C1705       C  0.10688092  0.89578011  0.24656981    -0.13800
C1706       C  0.12808381  0.90021175  0.27478386     0.16600
C1707       C  0.12944199  0.92782407  0.29247536     0.02900
C1708       C  0.11025650  0.95022695  0.28165686    -0.12300
C1709       C  0.08856801  0.94571923  0.25436755    -0.03300
C1710       C  0.08689786  0.91816681  0.23663527     0.02200
C1711       C  0.14948256  0.87663644  0.28497786     0.09000
N1712       N  0.14920707  0.93309473  0.32301185     0.65400
H1713       H  0.11139935  0.97098436  0.29634803     0.18300
N1714       N  0.06581427  0.91293657  0.20768156     0.75800
H1715       H  0.10596376  0.87499079  0.23199308     0.09800
C1716       C  0.14070983  0.84846382  0.29564357     0.03500
C1717       C  0.16153534  0.82813356  0.30906816    -0.05200
C1718       C  0.19085742  0.83578213  0.31336209    -0.23600
C1719       C  0.19981357  0.86334493  0.30103609     0.12700
C1720       C  0.17932047  0.88311769  0.28606768    -0.12800
N1721       N  0.11060293  0.84086028  0.29566004     0.64400
H1722       H  0.15443148  0.80696200  0.31851265     0.12300
N1723       N  0.22962249  0.87168759  0.30389374     0.61000
H1724       H  0.18666123  0.90415371  0.27649098     0.08400
O1725       O  0.04259479  0.89998023  0.21576460    -0.40400
O1726       O  0.07254170  0.91675460  0.17335858    -0.39600
O1727       O  0.16907485  0.95150120  0.31903871    -0.39600
O1728       O  0.14356909  0.92348277  0.35564524    -0.37300
O1729       O  0.24640509  0.86818716  0.27576258    -0.38200
O1730       O  0.23749472  0.88743006  0.33132078    -0.34400
O1731       O  0.10167565  0.82196530  0.27254285    -0.35800
O1732       O  0.09431160  0.84910106  0.32270737    -0.40100
C1733       C  0.17301776  0.14100483  0.13198158    -0.13800
C1734       C  0.14708656  0.15299129  0.14710451     0.16600
C1735       C  0.14665874  0.18239854  0.15892081     0.02900
C1736       C  0.17213715  0.19883838  0.15695331    -0.12300
C1737       C  0.19871427  0.18644048  0.14397909    -0.03300
C1738       C  0.19869383  0.15723205  0.13047295     0.02200
C1739       C  0.12288647  0.13312361  0.15698094     0.09000
N1740       N  0.12069191  0.19558440  0.17430049     0.65400
H1741       H  0.17129686  0.22111596  0.16726434     0.18300
N1742       N  0.22472342  0.14321244  0.11645217     0.75800
H1743       H  0.17381286  0.11830324  0.12331565     0.09800
C1744       C  0.10632584  0.11837049  0.12941014     0.03500
C1745       C  0.08635719  0.09699748  0.14058297    -0.05200
C1746       C  0.08313425  0.08951022  0.17900653    -0.23600
C1747       C  0.09923449  0.10501915  0.20647043     0.12700
C1748       C  0.11862247  0.12656074  0.19530954    -0.12800
N1749       N  0.10993324  0.12451115  0.09001633     0.64400
H1750       H  0.07434371  0.08535777  0.11906450     0.12300
N1751       N  0.09647181  0.09888546  0.24602384     0.61000
H1752       H  0.13135776  0.13748946  0.21679637     0.08400
O1753       O  0.24013830  0.12770752  0.13850421    -0.40400
O1754       O  0.22905990  0.14160301  0.08114371    -0.39600
O1755       O  0.11855559  0.19951585  0.20965288    -0.39600
O1756       O  0.10277666  0.20827203  0.15241972    -0.37300
O1757       O  0.11556522  0.08304676  0.26213450    -0.38200
O1758       O  0.07881465  0.11387353  0.26595160    -0.34400
O1759       O  0.12506164  0.10736230  0.06953052    -0.35800
O1760       O  0.09406499  0.14390335  0.07461001    -0.40100
loop_ 
_geom_bond_atom_site_label_1 
_geom_bond_atom_site_label_2 
_geom_bond_distance 
_geom_bond_site_symmetry_2 
_ccdc_geom_bond_type 
O1           Ni7   1.933       .  S
O1           C22   1.272       .  A
O2          Ni25   1.931       .  S
O2           C11   1.274       .  A
O3           Ni7   1.910   1_455  S
O3          Ni25   1.921   1_565  S
O3          Ni19   1.911       .  S
O3           H26   0.968       .  S
C4           O21   1.274   1_545  A
C4           O13   1.276       .  A
C4         C1606   1.480   1_545  S
O5          Ni24   1.927       .  S
O5           C11   1.271       .  A
O6          Ni24   1.898   1_565  S
O6            C8   1.268       .  A
Ni7          O10   1.911       .  S
Ni7          O12   1.907   1_565  S
C8           O18   1.272       .  A
C8         C1709   1.478       .  S
O9          Ni25   1.936       .  S
O9           C15   1.280       .  A
O10          C15   1.274   1_665  A
C11        C1746   1.492       .  S
O12          C14   1.269       .  A
O13         Ni24   1.933       .  S
C14          O20   1.274       .  A
C14        C1653   1.492       .  S
C15        C1634   1.479       .  S
H16          O17   0.966       .  S
O17         Ni25   1.924       .  S
O17         Ni19   1.913   1_545  S
O17         Ni24   1.912       .  S
O18         Ni19   1.933       .  S
Ni19         O23   1.915   1_455  S
Ni19         O21   1.917       .  S
O20         Ni25   1.928   1_655  S
C22          O23   1.267       .  A
C22        C1681   1.498       .  S
O27         Ni33   1.927       .  S
O27          C48   1.271       .  A
O28         Ni51   1.919       .  S
O28          C37   1.269       .  A
O29         Ni33   1.911       .  S
O29         Ni51   1.918   1_665  S
O29         Ni45   1.927       .  S
O29          H52   0.968   1_655  S
C30          O47   1.281   1_445  A
C30          O39   1.278       .  A
C30        C1625   1.480       .  S
O31         Ni50   1.930       .  S
O31          C37   1.269       .  A
O32         Ni50   1.902   1_565  S
O32          C34   1.267       .  A
Ni33         O36   1.928       .  S
Ni33         O38   1.909   1_565  S
C34          O44   1.273       .  A
C34        C1550   1.491       .  S
O35         Ni51   1.923       .  S
O35          C41   1.275   1_445  A
O36          C41   1.276       .  A
C37        C1578   1.476       .  S
O38          C40   1.270       .  A
O39         Ni50   1.923       .  S
C40          O46   1.274       .  A
C40        C1494   1.486       .  S
C41        C1597   1.489       .  S
H42          O43   0.967   1_655  S
O43         Ni51   1.909       .  S
O43         Ni45   1.905   1_445  S
O43         Ni50   1.903       .  S
O44         Ni45   1.936   1_455  S
Ni45         O49   1.922       .  S
Ni45         O47   1.929       .  S
O46         Ni51   1.935   1_655  S
C48          O49   1.271       .  A
C48        C1513   1.489       .  S
O53         Ni59   1.934       .  S
O53          C74   1.273       .  A
O54         Ni77   1.920       .  S
O54          C63   1.271       .  A
O55         Ni59   1.912       .  S
O55         Ni77   1.910       .  S
O55         Ni71   1.904       .  S
O55          H78   0.966       .  S
C56          O73   1.268       .  A
C56          O65   1.274       .  A
C56        C1373   1.494       .  S
O57         Ni76   1.917       .  S
O57          C63   1.272       .  A
O58         Ni76   1.907       .  S
O58          C60   1.267       .  A
Ni59         O62   1.925       .  S
Ni59         O64   1.911       .  S
C60          O70   1.277       .  A
C60        C1737   1.499       .  S
O61         Ni77   1.924       .  S
O61          C67   1.279       .  A
O62          C67   1.276       .  A
C63        C1466   1.492       .  S
O64          C66   1.270       .  A
O65         Ni76   1.937       .  S
C66          O72   1.275       .  A
C66        C1429   1.491       .  S
C67        C1345   1.488   1_554  S
H68          O69   0.965       .  S
O69         Ni77   1.930       .  S
O69         Ni71   1.915       .  S
O69         Ni76   1.919       .  S
O70         Ni71   1.947       .  S
Ni71         O75   1.900       .  S
Ni71         O73   1.910       .  S
O72         Ni77   1.942       .  S
C74          O75   1.263       .  A
C74        C1401   1.489       .  S
O79         Ni85   1.939       .  S
O79         C100   1.273       .  A
O80        Ni103   1.918       .  S
O80          C89   1.270       .  A
O81         Ni85   1.921       .  S
O81        Ni103   1.924       .  S
O81         Ni97   1.921       .  S
O81         H104   0.967       .  S
C82          O99   1.276       .  A
C82          O91   1.273       .  A
C82        C1354   1.484       .  S
O83        Ni102   1.929       .  S
O83          C89   1.269       .  A
O84        Ni102   1.907       .  S
O84          C86   1.270       .  A
Ni85         O88   1.937       .  S
Ni85         O90   1.911       .  S
C86          O96   1.273       .  A
C86        C1569   1.489       .  S
O87        Ni103   1.912       .  S
O87          C93   1.272       .  A
O88          C93   1.276       .  A
C89        C1317   1.495       .  S
O90          C92   1.270       .  A
O91        Ni102   1.917       .  S
C92          O98   1.274       .  A
C92        C1289   1.482       .  S
C93        C1382   1.493       .  S
H94          O95   0.965       .  S
O95        Ni103   1.908       .  S
O95         Ni97   1.916       .  S
O95        Ni102   1.919       .  S
O96         Ni97   1.936       .  S
Ni97        O101   1.914       .  S
Ni97         O99   1.924       .  S
O98        Ni103   1.933       .  S
C100        O101   1.269       .  A
C100       C1270   1.501       .  S
O105       Ni111   1.927       .  S
O105        C126   1.274       .  A
O106       Ni129   1.905       .  S
O106        C115   1.263       .  A
O107       Ni111   1.915       .  S
O107       Ni129   1.916       .  S
O107       Ni123   1.934       .  S
O107        H130   0.964       .  S
C108        O125   1.282       .  A
C108        O117   1.276       .  A
C108       C1121   1.496       .  S
O109       Ni128   1.936       .  S
O109        C115   1.271       .  A
O110       Ni128   1.905       .  S
O110        C112   1.269       .  A
Ni111       O114   1.942       .  S
Ni111       O116   1.908       .  S
C112        O122   1.274       .  A
C112       C1242   1.497       .  S
O113       Ni129   1.902       .  S
O113        C119   1.266       .  A
O114        C119   1.275       .  A
C115       C1718   1.474       .  S
O116        C118   1.272       .  A
O117       Ni128   1.920       .  S
C118        O124   1.278       .  A
C118       C1177   1.495       .  S
C119       C1158   1.493       .  S
H120        O121   0.967       .  S
O121       Ni129   1.898       .  S
O121       Ni123   1.909       .  S
O121       Ni128   1.911       .  S
O122       Ni123   1.941       .  S
Ni123       O127   1.926       .  S
Ni123       O125   1.932       .  S
O124       Ni129   1.955       .  S
C126        O127   1.274       .  A
C126       C1205   1.493       .  S
O131       Ni137   1.929       .  S
O131        C152   1.272       .  A
O132       Ni155   1.910       .  S
O132        C141   1.266       .  A
O133       Ni137   1.915       .  S
O133       Ni155   1.913       .  S
O133       Ni149   1.919       .  S
O133        H156   0.959       .  S
C134        O151   1.277       .  A
C134        O143   1.275       .  A
C134       C1149   1.499   1_556  S
O135       Ni154   1.933       .  S
O135        C141   1.272       .  A
O136       Ni154   1.905       .  S
O136        C138   1.270       .  A
Ni137       O140   1.936       .  S
Ni137       O142   1.900       .  S
C138        O148   1.273       .  A
C138       C1102   1.484       .  S
O139       Ni155   1.908       .  S
O139        C145   1.270       .  A
O140        C145   1.274       .  A
C141       C1541   1.490       .  S
O142        C144   1.269       .  A
O143       Ni154   1.920       .  S
C144        O150   1.275       .  A
C144       C1037   1.494       .  S
C145       C1130   1.484       .  S
H146        O147   0.966       .  S
O147       Ni155   1.912       .  S
O147       Ni149   1.919       .  S
O147       Ni154   1.915       .  S
O148       Ni149   1.933       .  S
Ni149       O153   1.914       .  S
Ni149       O151   1.934       .  S
O150       Ni155   1.947       .  S
C152        O153   1.272       .  A
C152       C1065   1.493       .  S
O157       Ni163   1.934       .  S
O157        C178   1.274       .  A
O158       Ni181   1.909       .  S
O158        C167   1.266       .  A
O159       Ni163   1.909       .  S
O159       Ni181   1.921   1_545  S
O159       Ni175   1.922       .  S
O159        H182   0.967       .  S
C160        O177   1.279   1_565  A
C160        O169   1.277       .  A
C160        C953   1.479       .  S
O161       Ni180   1.932   1_556  S
O161        C167   1.270       .  A
O162       Ni180   1.904   1_545  S
O162        C164   1.268       .  A
Ni163       O166   1.931       .  S
Ni163       O168   1.899   1_545  S
C164        O174   1.269   1_554  A
C164       C1457   1.486       .  S
O165       Ni181   1.905       .  S
O165        C171   1.268       .  A
O166        C171   1.276   1_545  A
C167       C1093   1.474       .  S
O168        C170   1.270       .  A
O169       Ni180   1.921       .  S
C170        O176   1.277       .  A
C170        C981   1.489       .  S
C171        C934   1.485       .  S
H172        O173   0.974       .  S
O173       Ni181   1.899       .  S
O173       Ni175   1.902   1_565  S
O173       Ni180   1.905   1_556  S
O174       Ni175   1.923       .  S
Ni175       O179   1.913       .  S
Ni175       O177   1.925   1_556  S
O176       Ni181   1.945       .  S
C178        O179   1.270       .  A
C178       C1018   1.497       .  S
O183       Ni189   1.927       .  S
O183        C204   1.271       .  A
O184       Ni207   1.912       .  S
O184        C193   1.269       .  A
O185       Ni189   1.901       .  S
O185       Ni207   1.906   1_565  S
O185       Ni201   1.915       .  S
O185        H208   0.969       .  S
C186        O203   1.280       .  A
C186        O195   1.276   1_565  A
C186        C962   1.493       .  S
O187       Ni206   1.937       .  S
O187        C193   1.273       .  A
O188       Ni206   1.909   1_565  S
O188        C190   1.271       .  A
Ni189       O192   1.926       .  S
Ni189       O194   1.914   1_565  S
C190        O200   1.276       .  A
C190       C1233   1.487       .  S
O191       Ni207   1.921       .  S
O191        C197   1.277   1_545  A
O192        C197   1.279       .  A
C193       C1326   1.498       .  S
O194        C196   1.269       .  A
O195       Ni206   1.912       .  S
C196        O202   1.272       .  A
C196        C897   1.493       .  S
C197        C925   1.486       .  S
H198        O199   0.967       .  S
O199       Ni207   1.909       .  S
O199       Ni201   1.917   1_545  S
O199       Ni206   1.903       .  S
O200       Ni201   1.944       .  S
Ni201       O205   1.934       .  S
Ni201       O203   1.930       .  S
O202       Ni207   1.932       .  S
C204        O205   1.275       .  A
C204        C869   1.499       .  S
O209       Ni215   1.933       .  S
O209        C230   1.273       .  A
O210       Ni233   1.906       .  S
O210        C219   1.266       .  A
O211       Ni215   1.922       .  S
O211       Ni233   1.923       .  S
O211       Ni227   1.929       .  S
O211        H234   0.949       .  S
C212        O229   1.277       .  A
C212        O221   1.276       .  A
C212        C794   1.488       .  S
O213       Ni232   1.932       .  S
O213        C219   1.269       .  A
O214       Ni232   1.901       .  S
O214        C216   1.267       .  A
Ni215       O218   1.938       .  S
Ni215       O220   1.908       .  S
C216        O226   1.274       .  A
C216        C822   1.479       .  S
O217       Ni233   1.909       .  S
O217        C223   1.269       .  A
O218        C223   1.276       .  A
C219        C850   1.480       .  S
O220        C222   1.270       .  A
O221       Ni232   1.919       .  S
C222        O228   1.275       .  A
C222        C878   1.488       .  S
C223        C757   1.496       .  S
H224        O225   0.969       .  S
O225       Ni233   1.904       .  S
O225       Ni227   1.912       .  S
O225       Ni232   1.915       .  S
O226       Ni227   1.940       .  S
Ni227       O231   1.912       .  S
Ni227       O229   1.925       .  S
O228       Ni233   1.948       .  S
C230        O231   1.271       .  A
C230       C1690   1.498       .  S
O235       Ni241   1.932       .  S
O235        C256   1.271       .  A
O236       Ni259   1.922       .  S
O236        C245   1.270       .  A
O237       Ni241   1.904       .  S
O237       Ni259   1.911       .  S
O237       Ni253   1.908       .  S
O237        H260   0.969       .  S
C238        O255   1.274       .  A
C238        O247   1.277       .  A
C238        C766   1.485       .  S
O239       Ni258   1.935       .  S
O239        C245   1.274       .  A
O240       Ni258   1.909       .  S
O240        C242   1.269       .  A
Ni241       O244   1.921       .  S
Ni241       O246   1.902       .  S
C242        O252   1.273       .  A
C242        C701   1.486       .  S
O243       Ni259   1.923       .  S
O243        C249   1.277       .  A
O244        C249   1.277       .  A
C245        C729   1.489       .  S
O246        C248   1.268       .  A
O247       Ni258   1.935       .  S
C248        O254   1.276       .  A
C248        C990   1.488       .  S
C249        C785   1.484   1_556  S
H250        O251   0.969       .  S
O251       Ni259   1.917       .  S
O251       Ni253   1.919       .  S
O251       Ni258   1.912       .  S
O252       Ni253   1.933       .  S
Ni253       O257   1.917       .  S
Ni253       O255   1.915       .  S
O254       Ni259   1.940       .  S
C256        O257   1.270       .  A
C256       C1522   1.496       .  S
O261       Ni267   1.938       .  S
O261        C282   1.272       .  A
O262       Ni285   1.925       .  S
O262        C271   1.273       .  A
O263       Ni267   1.914       .  S
O263       Ni285   1.913       .  S
O263       Ni279   1.907       .  S
O263        H286   0.967       .  S
C264        O281   1.272       .  A
C264        O273   1.276       .  A
C264        C589   1.492   1_554  S
O265       Ni284   1.930       .  S
O265        C271   1.273       .  A
O266       Ni284   1.904       .  S
O266        C268   1.269       .  A
Ni267       O270   1.919       .  S
Ni267       O272   1.902       .  S
C268        O278   1.274       .  A
C268        C673   1.482       .  S
O269       Ni285   1.932       .  S
O269        C275   1.280       .  A
O270        C275   1.275       .  A
C271        C645   1.500       .  S
O272        C274   1.267       .  A
O273       Ni284   1.934       .  S
C274        O280   1.275       .  A
C274       C1662   1.487       .  S
C275        C617   1.485       .  S
H276        O277   0.968       .  S
O277       Ni285   1.925       .  S
O277       Ni279   1.915       .  S
O277       Ni284   1.914       .  S
O278       Ni279   1.936       .  S
Ni279       O283   1.900       .  S
Ni279       O281   1.913       .  S
O280       Ni285   1.936       .  S
C282        O283   1.266       .  A
C282       C1009   1.490       .  S
O287       Ni293   1.926       .  S
O287        C308   1.272       .  A
O288       Ni311   1.915       .  S
O288        C297   1.269       .  A
O289       Ni293   1.910       .  S
O289       Ni311   1.918       .  S
O289       Ni305   1.927       .  S
O289        H312   0.969       .  S
C290        O307   1.282       .  A
C290        O299   1.275       .  A
C290        C626   1.491       .  S
O291       Ni310   1.927       .  S
O291        C297   1.269       .  A
O292       Ni310   1.905       .  S
O292        C294   1.269       .  A
Ni293       O296   1.931       .  S
Ni293       O298   1.898       .  S
C294        O304   1.276       .  A
C294        C570   1.493       .  S
O295       Ni311   1.920       .  S
O295        C301   1.275       .  A
O296        C301   1.276       .  A
C297        C533   1.494       .  S
O298        C300   1.267       .  A
O299       Ni310   1.917       .  S
C300        O306   1.274       .  A
C300       C1485   1.487       .  S
C301        C598   1.488       .  S
H302        O303   0.968       .  S
O303       Ni311   1.912       .  S
O303       Ni305   1.912       .  S
O303       Ni310   1.905       .  S
O304       Ni305   1.943       .  S
Ni305       O309   1.933       .  S
Ni305       O307   1.934       .  S
O306       Ni311   1.942       .  S
C308        O309   1.274       .  A
C308        C906   1.503       .  S
O313       Ni319   1.927       .  S
O313        C334   1.272   1_554  A
O314       Ni337   1.922       .  S
O314        C323   1.272       .  A
O315       Ni319   1.898       .  S
O315       Ni337   1.910       .  S
O315       Ni331   1.913   1_554  S
O315        H338   0.965       .  S
C316        O333   1.282       .  A
C316        O325   1.277       .  A
C316        C477   1.492       .  S
O317       Ni336   1.926   1_554  S
O317        C323   1.273       .  A
O318       Ni336   1.916       .  S
O318        C320   1.270       .  A
Ni319       O322   1.921       .  S
Ni319       O324   1.904       .  S
C320        O330   1.271       .  A
C320        C738   1.486       .  S
O321       Ni337   1.922       .  S
O321        C327   1.277       .  A
O322        C327   1.278       .  A
C323        C682   1.494       .  S
O324        C326   1.269       .  A
O325       Ni336   1.916       .  S
C326        O332   1.277       .  A
C326       C1438   1.498       .  S
C327        C514   1.492       .  S
H328        O329   0.969       .  S
O329       Ni337   1.913   1_556  S
O329       Ni331   1.901       .  S
O329       Ni336   1.897       .  S
O330       Ni331   1.933       .  S
Ni331       O335   1.917       .  S
Ni331       O333   1.933       .  S
O332       Ni337   1.947       .  S
C334        O335   1.270       .  A
C334       C1074   1.493       .  S
O339       Ni345   1.924       .  S
O339        C360   1.271       .  A
O340       Ni363   1.910       .  S
O340        C349   1.269       .  A
O341       Ni345   1.899       .  S
O341       Ni363   1.901       .  S
O341       Ni357   1.907       .  S
O341        H364   0.971       .  S
C342        O359   1.274       .  A
C342        O351   1.277       .  A
C342        C486   1.478       .  S
O343       Ni362   1.932       .  S
O343        C349   1.272       .  A
O344       Ni362   1.916       .  S
O344        C346   1.271       .  A
Ni345       O348   1.915       .  S
Ni345       O350   1.914       .  S
C346        O356   1.273       .  A
C346        C561   1.488       .  S
O347       Ni363   1.930       .  S
O347        C353   1.280       .  A
O348        C353   1.278       .  A
C349        C841   1.491       .  S
O350        C352   1.268       .  A
O351       Ni362   1.926       .  S
C352        O358   1.273       .  A
C352       C1214   1.498       .  S
C353        C505   1.484       .  S
H354        O355   0.972       .  S
O355       Ni363   1.918       .  S
O355       Ni357   1.917       .  S
O355       Ni362   1.909       .  S
O356       Ni357   1.935       .  S
Ni357       O361   1.918       .  S
Ni357       O359   1.917       .  S
O358       Ni363   1.936       .  S
C360        O361   1.269       .  A
C360       C1298   1.486       .  S
O365       Ni371   1.931       .  S
O365        C386   1.271       .  A
O366       Ni389   1.924   1_655  S
O366        C375   1.269       .  A
O367       Ni371   1.905       .  S
O367       Ni389   1.912       .  S
O367       Ni383   1.911       .  S
O367        H390   0.972       .  S
C368        O385   1.276       .  A
C368        O377   1.274   1_455  A
C368        C430   1.481       .  S
O369       Ni388   1.931       .  S
O369        C375   1.272       .  A
O370       Ni388   1.903       .  S
O370        C372   1.270       .  A
Ni371       O374   1.927       .  S
Ni371       O376   1.905       .  S
C372        O382   1.274       .  A
C372        C813   1.491       .  S
O373       Ni389   1.918       .  S
O373        C379   1.276       .  A
O374        C379   1.279       .  A
C375        C654   1.502       .  S
O376        C378   1.268       .  A
O377       Ni388   1.916       .  S
C378        O384   1.272       .  A
C378       C1410   1.483       .  S
C379        C449   1.488       .  S
H380        O381   0.968       .  S
O381       Ni389   1.912       .  S
O381       Ni383   1.927       .  S
O381       Ni388   1.907   1_455  S
O382       Ni383   1.940   1_655  S
Ni383       O387   1.930       .  S
Ni383       O385   1.922       .  S
O384       Ni389   1.929       .  S
C386        O387   1.274       .  A
C386       C1186   1.495       .  S
O391       Ni397   1.911       .  S
O391        C412   1.267       .  A
O392       Ni415   1.917       .  S
O392        C401   1.271       .  A
O393       Ni397   1.896       .  S
O393       Ni415   1.902   1_455  S
O393       Ni409   1.912       .  S
O393        H416   0.980   1_455  S
C394        O411   1.275   1_655  A
C394        O403   1.275       .  A
C394        C458   1.483       .  S
O395       Ni414   1.926       .  S
O395        C401   1.270       .  A
O396       Ni414   1.908       .  S
O396        C398   1.270       .  A
Ni397       O400   1.906       .  S
Ni397       O402   1.910       .  S
C398        O408   1.274       .  A
C398        C710   1.486       .  S
O399       Ni415   1.940       .  S
O399        C405   1.284   1_655  A
O400        C405   1.277       .  A
C401        C542   1.490       .  S
O402        C404   1.269       .  A
O403       Ni414   1.923       .  S
C404        O410   1.272       .  A
C404       C1261   1.495       .  S
C405        C421   1.488       .  S
H406        O407   0.969       .  S
O407       Ni415   1.930       .  S
O407       Ni409   1.921   1_655  S
O407       Ni414   1.912       .  S
O408       Ni409   1.933   1_655  S
Ni409       O413   1.927       .  S
Ni409       O411   1.920       .  S
O410       Ni415   1.935   1_455  S
C412        O413   1.270       .  A
C412       C1046   1.483       .  S
C417        C418   1.409   1_655  A
C417        C422   1.406       .  A
C417        H427   1.083       .  S
C418        C423   1.487       .  S
C418        C419   1.407       .  A
C419        C420   1.393       .  A
C419        N424   1.430       .  S
C420        C421   1.409       .  A
C420        H425   1.084       .  S
C421        C422   1.412   1_455  A
C422        N426   1.428       .  S
C423        C428   1.408   1_455  A
C423        C432   1.407       .  A
N424        O439   1.262       .  A
N424        O440   1.262       .  A
N426        O437   1.262       .  A
N426        O438   1.262       .  A
C428        C429   1.397   1_655  A
C428        N433   1.429       .  S
C429        C430   1.406       .  A
C429        H434   1.084   1_455  S
C430        C431   1.410       .  A
C431        C432   1.403       .  A
C431        N435   1.428       .  S
C432        H436   1.083       .  S
N433        O443   1.262       .  A
N433        O444   1.262   1_655  A
N435        O441   1.261       .  A
N435        O442   1.262       .  A
C445        C446   1.405   1_655  A
C445        C450   1.404       .  A
C445        H455   1.083       .  S
C446        C451   1.488   1_455  S
C446        C447   1.410       .  A
C447        C448   1.399       .  A
C447        N452   1.429       .  S
C448        C449   1.406       .  A
C448        H453   1.084       .  S
C449        C450   1.416   1_455  A
C450        N454   1.431       .  S
C451        C456   1.410   1_554  A
C451        C460   1.405   1_654  A
N452        O467   1.262       .  A
N452        O468   1.262       .  A
N454        O465   1.262       .  A
N454        O466   1.262       .  A
C456        C457   1.400       .  A
C456        N461   1.429   1_556  S
C457        C458   1.405       .  A
C457        H462   1.084       .  S
C458        C459   1.412       .  A
C459        C460   1.402   1_655  A
C459        N463   1.430   1_655  S
C460        H464   1.083   1_556  S
N461        O471   1.262       .  A
N461        O472   1.262   1_655  A
N463        O469   1.262   1_455  A
N463        O470   1.261       .  A
C473        C474   1.397       .  A
C473        C478   1.397       .  A
C473        H483   1.084       .  S
C474        C479   1.479       .  S
C474        C475   1.408       .  A
C475        C476   1.404       .  A
C475        N480   1.429       .  S
C476        C477   1.409       .  A
C476        H481   1.083       .  S
C477        C478   1.420       .  A
C478        N482   1.429       .  S
C479        C484   1.408       .  A
C479        C488   1.403       .  A
N480        O495   1.262       .  A
N480        O496   1.262       .  A
N482        O493   1.262       .  A
N482        O494   1.262       .  A
C484        C485   1.399       .  A
C484        N489   1.429       .  S
C485        C486   1.404       .  A
C485        H490   1.084       .  S
C486        C487   1.411       .  A
C487        C488   1.403       .  A
C487        N491   1.428       .  S
C488        H492   1.084       .  S
N489        O499   1.262       .  A
N489        O500   1.262       .  A
N491        O497   1.262       .  A
N491        O498   1.261       .  A
C501        C502   1.403       .  A
C501        C506   1.404       .  A
C501        H511   1.084       .  S
C502        C507   1.476       .  S
C502        C503   1.404       .  A
C503        C504   1.395       .  A
C503        N508   1.429       .  S
C504        C505   1.408       .  A
C504        H509   1.084       .  S
C505        C506   1.414       .  A
C506        N510   1.428       .  S
C507        C512   1.403       .  A
C507        C516   1.400       .  A
N508        O523   1.262       .  A
N508        O524   1.262       .  A
N510        O521   1.262       .  A
N510        O522   1.262       .  A
C512        C513   1.396       .  A
C512        N517   1.430       .  S
C513        C514   1.411       .  A
C513        H518   1.083       .  S
C514        C515   1.418       .  A
C515        C516   1.404       .  A
C515        N519   1.428       .  S
C516        H520   1.084       .  S
N517        O527   1.262       .  A
N517        O528   1.262       .  A
N519        O525   1.262       .  A
N519        O526   1.261       .  A
C529        C530   1.400       .  A
C529        C534   1.400       .  A
C529        H539   1.084       .  S
C530        C535   1.486       .  S
C530        C531   1.409       .  A
C531        C532   1.404       .  A
C531        N536   1.429       .  S
C532        C533   1.408       .  A
C532        H537   1.084       .  S
C533        C534   1.419       .  A
C534        N538   1.429       .  S
C535        C540   1.410       .  A
C535        C544   1.400       .  A
N536        O551   1.262       .  A
N536        O552   1.262       .  A
N538        O549   1.262       .  A
N538        O550   1.262       .  A
C540        C541   1.403       .  A
C540        N545   1.429       .  S
C541        C542   1.406       .  A
C541        H546   1.083       .  S
C542        C543   1.418       .  A
C543        C544   1.401       .  A
C543        N547   1.429       .  S
C544        H548   1.084       .  S
N545        O555   1.262       .  A
N545        O556   1.262       .  A
N547        O553   1.262       .  A
N547        O554   1.262       .  A
C557        C558   1.405       .  A
C557        C562   1.401       .  A
C557        H567   1.084       .  S
C558        C563   1.493       .  S
C558        C559   1.413       .  A
C559        C560   1.408       .  A
C559        N564   1.430       .  S
C560        C561   1.407       .  A
C560        H565   1.084       .  S
C561        C562   1.411       .  A
C562        N566   1.429       .  S
C563        C568   1.414       .  A
C563        C572   1.401       .  A
N564        O579   1.262       .  A
N564        O580   1.262       .  A
N566        O577   1.262       .  A
N566        O578   1.262       .  A
C568        C569   1.410       .  A
C568        N573   1.429       .  S
C569        C570   1.408       .  A
C569        H574   1.084       .  S
C570        C571   1.415       .  A
C571        C572   1.398       .  A
C571        N575   1.429       .  S
C572        H576   1.084       .  S
N573        O583   1.262       .  A
N573        O584   1.262       .  A
N575        O581   1.262       .  A
N575        O582   1.262       .  A
C585        C586   1.402       .  A
C585        C590   1.402       .  A
C585        H595   1.084       .  S
C586        C591   1.488       .  S
C586        C587   1.409       .  A
C587        C588   1.405       .  A
C587        N592   1.429       .  S
C588        C589   1.409       .  A
C588        H593   1.084       .  S
C589        C590   1.415       .  A
C590        N594   1.429       .  S
C591        C596   1.410       .  A
C591        C600   1.402       .  A
N592        O607   1.262       .  A
N592        O608   1.262       .  A
N594        O605   1.262       .  A
N594        O606   1.262       .  A
C596        C597   1.404       .  A
C596        N601   1.428       .  S
C597        C598   1.404       .  A
C597        H602   1.084       .  S
C598        C599   1.416       .  A
C599        C600   1.404       .  A
C599        N603   1.430       .  S
C600        H604   1.084       .  S
N601        O611   1.262       .  A
N601        O612   1.262       .  A
N603        O609   1.262       .  A
N603        O610   1.262       .  A
C613        C614   1.398       .  A
C613        C618   1.397       .  A
C613        H623   1.084       .  S
C614        C619   1.485       .  S
C614        C615   1.412       .  A
C615        C616   1.406       .  A
C615        N620   1.428       .  S
C616        C617   1.405       .  A
C616        H621   1.084       .  S
C617        C618   1.415       .  A
C618        N622   1.428       .  S
C619        C624   1.411       .  A
C619        C628   1.399       .  A
N620        O635   1.262       .  A
N620        O636   1.262       .  A
N622        O633   1.261       .  A
N622        O634   1.262       .  A
C624        C625   1.403       .  A
C624        N629   1.429       .  S
C625        C626   1.405       .  A
C625        H630   1.081       .  S
C626        C627   1.418       .  A
C627        C628   1.400       .  A
C627        N631   1.429       .  S
C628        H632   1.084       .  S
N629        O639   1.262       .  A
N629        O640   1.262       .  A
N631        O637   1.262       .  A
N631        O638   1.262       .  A
C641        C642   1.406       .  A
C641        C646   1.409       .  A
C641        H651   1.084       .  S
C642        C647   1.492       .  S
C642        C643   1.406       .  A
C643        C644   1.402       .  A
C643        N648   1.429       .  S
C644        C645   1.412       .  A
C644        H649   1.083       .  S
C645        C646   1.416       .  A
C646        N650   1.428       .  S
C647        C652   1.406       .  A
C647        C656   1.406       .  A
N648        O663   1.262       .  A
N648        O664   1.262       .  A
N650        O661   1.262       .  A
N650        O662   1.262       .  A
C652        C653   1.400       .  A
C652        N657   1.429       .  S
C653        C654   1.411       .  A
C653        H658   1.083       .  S
C654        C655   1.419       .  A
C655        C656   1.410       .  A
C655        N659   1.430       .  S
C656        H660   1.084       .  S
N657        O667   1.262       .  A
N657        O668   1.262       .  A
N659        O665   1.262       .  A
N659        O666   1.262       .  A
C669        C670   1.404       .  A
C669        C674   1.403       .  A
C669        H679   1.084       .  S
C670        C675   1.486       .  S
C670        C671   1.410       .  A
C671        C672   1.401       .  A
C671        N676   1.430       .  S
C672        C673   1.405       .  A
C672        H677   1.084       .  S
C673        C674   1.412       .  A
C674        N678   1.429       .  S
C675        C680   1.409       .  A
C675        C684   1.402       .  A
N676        O691   1.262       .  A
N676        O692   1.262       .  A
N678        O689   1.262       .  A
N678        O690   1.262       .  A
C680        C681   1.399       .  A
C680        N685   1.431       .  S
C681        C682   1.409       .  A
C681        H686   1.084       .  S
C682        C683   1.419       .  A
C683        C684   1.407       .  A
C683        N687   1.432       .  S
C684        H688   1.084       .  S
N685        O695   1.262       .  A
N685        O696   1.262       .  A
N687        O693   1.262       .  A
N687        O694   1.262       .  A
C697        C698   1.404       .  A
C697        C702   1.400       .  A
C697        H707   1.084       .  S
C698        C703   1.489       .  S
C698        C699   1.412       .  A
C699        C700   1.405       .  A
C699        N704   1.430       .  S
C700        C701   1.406       .  A
C700        H705   1.084       .  S
C701        C702   1.413       .  A
C702        N706   1.430       .  S
C703        C708   1.413       .  A
C703        C712   1.402       .  A
N704        O719   1.262       .  A
N704        O720   1.262       .  A
N706        O717   1.262       .  A
N706        O718   1.262       .  A
C708        C709   1.407       .  A
C708        N713   1.430       .  S
C709        C710   1.407       .  A
C709        H714   1.084       .  S
C710        C711   1.413       .  A
C711        C712   1.398       .  A
C711        N715   1.429       .  S
C712        H716   1.084       .  S
N713        O723   1.262       .  A
N713        O724   1.262       .  A
N715        O721   1.262       .  A
N715        O722   1.262       .  A
C725        C726   1.408       .  A
C725        C730   1.411       .  A
C725        H735   1.083       .  S
C726        C731   1.497       .  S
C726        C727   1.412       .  A
C727        C728   1.399       .  A
C727        N732   1.430       .  S
C728        C729   1.403       .  A
C728        H733   1.084       .  S
C729        C730   1.413       .  A
C730        N734   1.429       .  S
C731        C736   1.413       .  A
C731        C740   1.405       .  A
N732        O747   1.262       .  A
N732        O748   1.262       .  A
N734        O745   1.262       .  A
N734        O746   1.262       .  A
C736        C737   1.409       .  A
C736        N741   1.428   1_556  S
C737        C738   1.405       .  A
C737        H742   1.084   1_556  S
C738        C739   1.411       .  A
C739        C740   1.399       .  A
C739        N743   1.429       .  S
C740        H744   1.084       .  S
N741        O751   1.262       .  A
N741        O752   1.262       .  A
N743        O749   1.262       .  A
N743        O750   1.262       .  A
C753        C754   1.403       .  A
C753        C758   1.405       .  A
C753        H763   1.084       .  S
C754        C759   1.486       .  S
C754        C755   1.406       .  A
C755        C756   1.400       .  A
C755        N760   1.429       .  S
C756        C757   1.409       .  A
C756        H761   1.083       .  S
C757        C758   1.418       .  A
C758        N762   1.429       .  S
C759        C764   1.408       .  A
C759        C768   1.403       .  A
N760        O775   1.262       .  A
N760        O776   1.262       .  A
N762        O773   1.262       .  A
N762        O774   1.262       .  A
C764        C765   1.403       .  A
C764        N769   1.428       .  S
C765        C766   1.405       .  A
C765        H770   1.084       .  S
C766        C767   1.413       .  A
C767        C768   1.403       .  A
C767        N771   1.429       .  S
C768        H772   1.084       .  S
N769        O779   1.262       .  A
N769        O780   1.262       .  A
N771        O777   1.262       .  A
N771        O778   1.261       .  A
C781        C782   1.408       .  A
C781        C786   1.404       .  A
C781        H791   1.083       .  S
C782        C787   1.492       .  S
C782        C783   1.411       .  A
C783        C784   1.398       .  A
C783        N788   1.429       .  S
C784        C785   1.405       .  A
C784        H789   1.084       .  S
C785        C786   1.412       .  A
C786        N790   1.429       .  S
C787        C792   1.410       .  A
C787        C796   1.408       .  A
N788        O803   1.262       .  A
N788        O804   1.262       .  A
N790        O801   1.262       .  A
N790        O802   1.262       .  A
C792        C793   1.398       .  A
C792        N797   1.430       .  S
C793        C794   1.407       .  A
C793        H798   1.084       .  S
C794        C795   1.413       .  A
C795        C796   1.405       .  A
C795        N799   1.429       .  S
C796        H800   1.083       .  S
N797        O807   1.262       .  A
N797        O808   1.262       .  A
N799        O805   1.261       .  A
N799        O806   1.262       .  A
C809        C810   1.401       .  A
C809        C814   1.406       .  A
C809        H819   1.084       .  S
C810        C815   1.483       .  S
C810        C811   1.408       .  A
C811        C812   1.398       .  A
C811        N816   1.430       .  S
C812        C813   1.407       .  A
C812        H817   1.084       .  S
C813        C814   1.417       .  A
C814        N818   1.428       .  S
C815        C820   1.409       .  A
C815        C824   1.403       .  A
N816        O831   1.262       .  A
N816        O832   1.262       .  A
N818        O829   1.261       .  A
N818        O830   1.262   1_655  A
C820        C821   1.399       .  A
C820        N825   1.430       .  S
C821        C822   1.403       .  A
C821        H826   1.084       .  S
C822        C823   1.412       .  A
C823        C824   1.405       .  A
C823        N827   1.428       .  S
C824        H828   1.084       .  S
N825        O835   1.262       .  A
N825        O836   1.262       .  A
N827        O833   1.262       .  A
N827        O834   1.262       .  A
C837        C838   1.399       .  A
C837        C842   1.399       .  A
C837        H847   1.084       .  S
C838        C843   1.481       .  S
C838        C839   1.409       .  A
C839        C840   1.403       .  A
C839        N844   1.430       .  S
C840        C841   1.408       .  A
C840        H845   1.082       .  S
C841        C842   1.417       .  A
C842        N846   1.429       .  S
C843        C848   1.409       .  A
C843        C852   1.402       .  A
N844        O859   1.262       .  A
N844        O860   1.262       .  A
N846        O857   1.262       .  A
N846        O858   1.262       .  A
C848        C849   1.401       .  A
C848        N853   1.429       .  S
C849        C850   1.404       .  A
C849        H854   1.084       .  S
C850        C851   1.412       .  A
C851        C852   1.401       .  A
C851        N855   1.429       .  S
C852        H856   1.084       .  S
N853        O863   1.262       .  A
N853        O864   1.262       .  A
N855        O861   1.262       .  A
N855        O862   1.262       .  A
C865        C866   1.398       .  A
C865        C870   1.399       .  A
C865        H875   1.084       .  S
C866        C871   1.490       .  S
C866        C867   1.410       .  A
C867        C868   1.411       .  A
C867        N872   1.428       .  S
C868        C869   1.410       .  A
C868        H873   1.083       .  S
C869        C870   1.420       .  A
C870        N874   1.428       .  S
C871        C876   1.409       .  A
C871        C880   1.405       .  A
N872        O887   1.262       .  A
N872        O888   1.262       .  A
N874        O885   1.262       .  A
N874        O886   1.261       .  A
C876        C877   1.402       .  A
C876        N881   1.428       .  S
C877        C878   1.405       .  A
C877        H882   1.084       .  S
C878        C879   1.415       .  A
C879        C880   1.408       .  A
C879        N883   1.430       .  S
C880        H884   1.084       .  S
N881        O891   1.262       .  A
N881        O892   1.262       .  A
N883        O889   1.262       .  A
N883        O890   1.262       .  A
C893        C894   1.404       .  A
C893        C898   1.403       .  A
C893        H903   1.084       .  S
C894        C899   1.495       .  S
C894        C895   1.411       .  A
C895        C896   1.406       .  A
C895        N900   1.428       .  S
C896        C897   1.407       .  A
C896        H901   1.084       .  S
C897        C898   1.414       .  A
C898        N902   1.428       .  S
C899        C904   1.408       .  A
C899        C908   1.407       .  A
N900        O915   1.262       .  A
N900        O916   1.262       .  A
N902        O913   1.262       .  A
N902        O914   1.261       .  A
C904        C905   1.398       .  A
C904        N909   1.430       .  S
C905        C906   1.411       .  A
C905        H910   1.083       .  S
C906        C907   1.416       .  A
C907        C908   1.411       .  A
C907        N911   1.427       .  S
C908        H912   1.083       .  S
N909        O919   1.262       .  A
N909        O920   1.262       .  A
N911        O917   1.261       .  A
N911        O918   1.262       .  A
C921        C922   1.405   1_545  A
C921        C926   1.401       .  A
C921        H931   1.084       .  S
C922        C927   1.490       .  S
C922        C923   1.411       .  A
C923        C924   1.401       .  A
C923        N928   1.429       .  S
C924        C925   1.406       .  A
C924        H929   1.084       .  S
C925        C926   1.413   1_565  A
C926        N930   1.429       .  S
C927        C932   1.412   1_565  A
C927        C936   1.406       .  A
N928        O943   1.262       .  A
N928        O944   1.261       .  A
N930        O941   1.262       .  A
N930        O942   1.262       .  A
C932        C933   1.395       .  A
C932        N937   1.430       .  S
C933        C934   1.402   1_545  A
C933        H938   1.084       .  S
C934        C935   1.416       .  A
C935        C936   1.406       .  A
C935        N939   1.430       .  S
C936        H940   1.083       .  S
N937        O947   1.262       .  A
N937        O948   1.262       .  A
N939        O945   1.262       .  A
N939        O946   1.261       .  A
C949        C950   1.400       .  A
C949        C954   1.400       .  A
C949        H959   1.084       .  S
C950        C955   1.479       .  S
C950        C951   1.410   1_565  A
C951        C952   1.401       .  A
C951        N956   1.430       .  S
C952        C953   1.403   1_545  A
C952        H957   1.082       .  S
C953        C954   1.412       .  A
C954        N958   1.429       .  S
C955        C960   1.405   1_565  A
C955        C964   1.403       .  A
N956        O971   1.262       .  A
N956        O972   1.262       .  A
N958        O969   1.262       .  A
N958        O970   1.262       .  A
C960        C961   1.394       .  A
C960        N965   1.431       .  S
C961        C962   1.411   1_545  A
C961        H966   1.083       .  S
C962        C963   1.416       .  A
C963        C964   1.406       .  A
C963        N967   1.428       .  S
C964        H968   1.084       .  S
N965        O975   1.262       .  A
N965        O976   1.262       .  A
N967        O973   1.262       .  A
N967        O974   1.262       .  A
C977        C978   1.406       .  A
C977        C982   1.405       .  A
C977        H987   1.083       .  S
C978        C983   1.496       .  S
C978        C979   1.415       .  A
C979        C980   1.398       .  A
C979        N984   1.430       .  S
C980        C981   1.405       .  A
C980        H985   1.084       .  S
C981        C982   1.413       .  A
C982        N986   1.427       .  S
C983        C988   1.415       .  A
C983        C992   1.403       .  A
N984        O999   1.263       .  A
N984       O1000   1.261       .  A
N986        O997   1.262       .  A
N986        O998   1.261       .  A
C988        C989   1.407       .  A
C988        N993   1.428       .  S
C989        C990   1.405       .  A
C989        H994   1.084       .  S
C990        C991   1.414       .  A
C991        C992   1.398       .  A
C991        N995   1.428       .  S
C992        H996   1.083       .  S
N993       O1003   1.262       .  A
N993       O1004   1.262       .  A
N995       O1001   1.262       .  A
N995       O1002   1.262       .  A
C1005      C1006   1.400       .  A
C1005      C1010   1.401       .  A
C1005      H1015   1.084       .  S
C1006      C1011   1.478       .  S
C1006      C1007   1.405       .  A
C1007      C1008   1.400       .  A
C1007      N1012   1.429       .  S
C1008      C1009   1.409       .  A
C1008      H1013   1.083       .  S
C1009      C1010   1.418       .  A
C1010      N1014   1.429       .  S
C1011      C1016   1.405   1_554  A
C1011      C1020   1.397       .  A
N1012      O1027   1.262       .  A
N1012      O1028   1.262   1_554  A
N1014      O1025   1.262       .  A
N1014      O1026   1.262       .  A
C1016      C1017   1.401       .  A
C1016      N1021   1.429       .  S
C1017      C1018   1.411       .  A
C1017      H1022   1.083       .  S
C1018      C1019   1.419   1_556  A
C1019      C1020   1.403       .  A
C1019      N1023   1.428       .  S
C1020      H1024   1.084       .  S
N1021      O1031   1.262       .  A
N1021      O1032   1.261       .  A
N1023      O1029   1.261       .  A
N1023      O1030   1.262       .  A
C1033      C1034   1.404       .  A
C1033      C1038   1.409       .  A
C1033      H1043   1.084       .  S
C1034      C1039   1.485       .  S
C1034      C1035   1.407       .  A
C1035      C1036   1.395       .  A
C1035      N1040   1.429       .  S
C1036      C1037   1.407       .  A
C1036      H1041   1.083       .  S
C1037      C1038   1.419       .  A
C1038      N1042   1.429       .  S
C1039      C1044   1.411       .  A
C1039      C1048   1.400       .  A
N1040      O1055   1.262       .  A
N1040      O1056   1.261       .  A
N1042      O1053   1.262       .  A
N1042      O1054   1.262       .  A
C1044      C1045   1.409       .  A
C1044      N1049   1.428       .  S
C1045      C1046   1.405       .  A
C1045      H1050   1.082       .  S
C1046      C1047   1.413       .  A
C1047      C1048   1.395       .  A
C1047      N1051   1.430       .  S
C1048      H1052   1.084       .  S
N1049      O1059   1.262       .  A
N1049      O1060   1.262       .  A
N1051      O1057   1.262       .  A
N1051      O1058   1.262       .  A
C1061      C1062   1.398       .  A
C1061      C1066   1.400       .  A
C1061      H1071   1.084       .  S
C1062      C1067   1.481       .  S
C1062      C1063   1.408       .  A
C1063      C1064   1.403       .  A
C1063      N1068   1.429       .  S
C1064      C1065   1.405       .  A
C1064      H1069   1.078       .  S
C1065      C1066   1.418       .  A
C1066      N1070   1.429       .  S
C1067      C1072   1.406       .  A
C1067      C1076   1.402       .  A
N1068      O1083   1.262   1_556  A
N1068      O1084   1.262   1_556  A
N1070      O1081   1.262       .  A
N1070      O1082   1.262       .  A
C1072      C1073   1.399       .  A
C1072      N1077   1.430       .  S
C1073      C1074   1.410       .  A
C1073      H1078   1.083   1_556  S
C1074      C1075   1.416       .  A
C1075      C1076   1.405       .  A
C1075      N1079   1.429       .  S
C1076      H1080   1.084       .  S
N1077      O1087   1.262       .  A
N1077      O1088   1.262   1_556  A
N1079      O1085   1.262       .  A
N1079      O1086   1.262       .  A
C1089      C1090   1.406       .  A
C1089      C1094   1.399       .  A
C1089      H1099   1.083       .  S
C1090      C1095   1.493       .  S
C1090      C1091   1.415       .  A
C1091      C1092   1.403       .  A
C1091      N1096   1.429       .  S
C1092      C1093   1.401       .  A
C1092      H1097   1.084       .  S
C1093      C1094   1.409       .  A
C1094      N1098   1.430       .  S
C1095      C1100   1.414       .  A
C1095      C1104   1.407       .  A
N1096      O1111   1.262       .  A
N1096      O1112   1.262       .  A
N1098      O1109   1.262       .  A
N1098      O1110   1.262       .  A
C1100      C1101   1.397       .  A
C1100      N1105   1.430       .  S
C1101      C1102   1.403       .  A
C1101      H1106   1.084       .  S
C1102      C1103   1.412       .  A
C1103      C1104   1.405       .  A
C1103      N1107   1.429       .  S
C1104      H1108   1.083       .  S
N1105      O1115   1.262       .  A
N1105      O1116   1.262       .  A
N1107      O1113   1.262       .  A
N1107      O1114   1.262       .  A
C1117      C1118   1.400       .  A
C1117      C1122   1.401       .  A
C1117      H1127   1.084       .  S
C1118      C1123   1.486       .  S
C1118      C1119   1.409       .  A
C1119      C1120   1.403       .  A
C1119      N1124   1.429       .  S
C1120      C1121   1.406       .  A
C1120      H1125   1.081       .  S
C1121      C1122   1.421       .  A
C1122      N1126   1.430       .  S
C1123      C1128   1.410       .  A
C1123      C1132   1.403       .  A
N1124      O1139   1.262       .  A
N1124      O1140   1.262       .  A
N1126      O1137   1.262       .  A
N1126      O1138   1.262       .  A
C1128      C1129   1.402       .  A
C1128      N1133   1.429       .  S
C1129      C1130   1.405       .  A
C1129      H1134   1.084       .  S
C1130      C1131   1.413       .  A
C1131      C1132   1.402       .  A
C1131      N1135   1.430       .  S
C1132      H1136   1.084       .  S
N1133      O1143   1.262       .  A
N1133      O1144   1.262       .  A
N1135      O1141   1.262       .  A
N1135      O1142   1.262       .  A
C1145      C1146   1.404       .  A
C1145      C1150   1.405       .  A
C1145      H1155   1.083       .  S
C1146      C1151   1.494       .  S
C1146      C1147   1.410       .  A
C1147      C1148   1.401       .  A
C1147      N1152   1.430       .  S
C1148      C1149   1.410       .  A
C1148      H1153   1.083       .  S
C1149      C1150   1.416       .  A
C1150      N1154   1.425       .  S
C1151      C1156   1.411       .  A
C1151      C1160   1.405       .  A
N1152      O1167   1.262       .  A
N1152      O1168   1.262       .  A
N1154      O1165   1.262       .  A
N1154      O1166   1.262       .  A
C1156      C1157   1.402       .  A
C1156      N1161   1.429       .  S
C1157      C1158   1.407       .  A
C1157      H1162   1.083       .  S
C1158      C1159   1.417       .  A
C1159      C1160   1.403       .  A
C1159      N1163   1.429       .  S
C1160      H1164   1.083       .  S
N1161      O1171   1.262       .  A
N1161      O1172   1.262       .  A
N1163      O1169   1.262       .  A
N1163      O1170   1.262       .  A
C1173      C1174   1.406       .  A
C1173      C1178   1.408       .  A
C1173      H1183   1.083       .  S
C1174      C1179   1.499       .  S
C1174      C1175   1.413       .  A
C1175      C1176   1.402       .  A
C1175      N1180   1.430       .  S
C1176      C1177   1.405       .  A
C1176      H1181   1.084       .  S
C1177      C1178   1.416       .  A
C1178      N1182   1.429       .  S
C1179      C1184   1.414       .  A
C1179      C1188   1.402       .  A
N1180      O1195   1.262       .  A
N1180      O1196   1.262       .  A
N1182      O1193   1.262       .  A
N1182      O1194   1.262       .  A
C1184      C1185   1.410       .  A
C1184      N1189   1.428       .  S
C1185      C1186   1.406       .  A
C1185      H1190   1.083       .  S
C1186      C1187   1.416       .  A
C1187      C1188   1.400       .  A
C1187      N1191   1.428       .  S
C1188      H1192   1.083       .  S
N1189      O1199   1.262       .  A
N1189      O1200   1.261       .  A
N1191      O1197   1.262       .  A
N1191      O1198   1.262       .  A
C1201      C1202   1.407       .  A
C1201      C1206   1.409       .  A
C1201      H1211   1.084       .  S
C1202      C1207   1.492       .  S
C1202      C1203   1.410       .  A
C1203      C1204   1.402       .  A
C1203      N1208   1.430       .  S
C1204      C1205   1.407       .  A
C1204      H1209   1.084       .  S
C1205      C1206   1.412       .  A
C1206      N1210   1.427       .  S
C1207      C1212   1.411       .  A
C1207      C1216   1.402       .  A
N1208      O1223   1.262       .  A
N1208      O1224   1.262       .  A
N1210      O1221   1.262       .  A
N1210      O1222   1.262       .  A
C1212      C1213   1.407       .  A
C1212      N1217   1.429       .  S
C1213      C1214   1.410       .  A
C1213      H1218   1.084       .  S
C1214      C1215   1.417       .  A
C1215      C1216   1.404       .  A
C1215      N1219   1.428       .  S
C1216      H1220   1.084       .  S
N1217      O1227   1.262       .  A
N1217      O1228   1.262       .  A
N1219      O1225   1.262       .  A
N1219      O1226   1.262       .  A
C1229      C1230   1.402       .  A
C1229      C1234   1.402       .  A
C1229      H1239   1.084       .  S
C1230      C1235   1.488       .  S
C1230      C1231   1.410       .  A
C1231      C1232   1.408       .  A
C1231      N1236   1.428       .  S
C1232      C1233   1.405       .  A
C1232      H1237   1.084       .  S
C1233      C1234   1.414       .  A
C1234      N1238   1.430       .  S
C1235      C1240   1.406       .  A
C1235      C1244   1.404       .  A
N1236      O1251   1.262       .  A
N1236      O1252   1.262       .  A
N1238      O1249   1.262       .  A
N1238      O1250   1.262       .  A
C1240      C1241   1.399       .  A
C1240      N1245   1.429       .  S
C1241      C1242   1.409       .  A
C1241      H1246   1.083       .  S
C1242      C1243   1.417       .  A
C1243      C1244   1.409       .  A
C1243      N1247   1.429       .  S
C1244      H1248   1.084       .  S
N1245      O1255   1.262       .  A
N1245      O1256   1.262       .  A
N1247      O1253   1.262       .  A
N1247      O1254   1.262       .  A
C1257      C1258   1.403       .  A
C1257      C1262   1.407       .  A
C1257      H1267   1.084       .  S
C1258      C1263   1.488       .  S
C1258      C1259   1.407       .  A
C1259      C1260   1.403       .  A
C1259      N1264   1.428       .  S
C1260      C1261   1.408       .  A
C1260      H1265   1.084       .  S
C1261      C1262   1.418       .  A
C1262      N1266   1.430       .  S
C1263      C1268   1.407       .  A
C1263      C1272   1.400       .  A
N1264      O1279   1.262       .  A
N1264      O1280   1.262       .  A
N1266      O1277   1.262       .  A
N1266      O1278   1.262       .  A
C1268      C1269   1.408       .  A
C1268      N1273   1.428       .  S
C1269      C1270   1.411       .  A
C1269      H1274   1.083       .  S
C1270      C1271   1.420       .  A
C1271      C1272   1.402       .  A
C1271      N1275   1.429       .  S
C1272      H1276   1.084       .  S
N1273      O1283   1.262       .  A
N1273      O1284   1.262       .  A
N1275      O1281   1.262       .  A
N1275      O1282   1.262       .  A
C1285      C1286   1.404       .  A
C1285      C1290   1.401       .  A
C1285      H1295   1.083       .  S
C1286      C1291   1.489       .  S
C1286      C1287   1.411       .  A
C1287      C1288   1.402       .  A
C1287      N1292   1.429       .  S
C1288      C1289   1.405       .  A
C1288      H1293   1.084       .  S
C1289      C1290   1.411       .  A
C1290      N1294   1.429       .  S
C1291      C1296   1.410       .  A
C1291      C1300   1.406       .  A
N1292      O1307   1.262       .  A
N1292      O1308   1.262       .  A
N1294      O1305   1.262       .  A
N1294      O1306   1.262       .  A
C1296      C1297   1.397       .  A
C1296      N1301   1.429       .  S
C1297      C1298   1.405       .  A
C1297      H1302   1.084       .  S
C1298      C1299   1.415       .  A
C1299      C1300   1.406       .  A
C1299      N1303   1.429       .  S
C1300      H1304   1.083       .  S
N1301      O1311   1.262       .  A
N1301      O1312   1.262       .  A
N1303      O1309   1.261       .  A
N1303      O1310   1.262       .  A
C1313      C1314   1.401       .  A
C1313      C1318   1.403       .  A
C1313      H1323   1.084       .  S
C1314      C1319   1.490       .  S
C1314      C1315   1.411       .  A
C1315      C1316   1.405       .  A
C1315      N1320   1.428       .  S
C1316      C1317   1.407       .  A
C1316      H1321   1.084       .  S
C1317      C1318   1.420       .  A
C1318      N1322   1.429       .  S
C1319      C1324   1.410       .  A
C1319      C1328   1.401       .  A
N1320      O1335   1.262       .  A
N1320      O1336   1.262       .  A
N1322      O1333   1.262       .  A
N1322      O1334   1.262       .  A
C1324      C1325   1.405       .  A
C1324      N1329   1.429       .  S
C1325      C1326   1.409       .  A
C1325      H1330   1.083       .  S
C1326      C1327   1.418       .  A
C1327      C1328   1.402       .  A
C1327      N1331   1.428       .  S
C1328      H1332   1.084       .  S
N1329      O1339   1.262       .  A
N1329      O1340   1.262       .  A
N1331      O1337   1.262       .  A
N1331      O1338   1.262       .  A
C1341      C1342   1.400       .  A
C1341      C1346   1.400       .  A
C1341      H1351   1.084       .  S
C1342      C1347   1.483       .  S
C1342      C1343   1.411       .  A
C1343      C1344   1.402       .  A
C1343      N1348   1.430       .  S
C1344      C1345   1.403       .  A
C1344      H1349   1.079       .  S
C1345      C1346   1.416       .  A
C1346      N1350   1.428       .  S
C1347      C1352   1.409       .  A
C1347      C1356   1.404       .  A
N1348      O1363   1.262       .  A
N1348      O1364   1.262       .  A
N1350      O1361   1.262       .  A
N1350      O1362   1.262       .  A
C1352      C1353   1.400       .  A
C1352      N1357   1.431       .  S
C1353      C1354   1.407       .  A
C1353      H1358   1.084       .  S
C1354      C1355   1.411       .  A
C1355      C1356   1.403       .  A
C1355      N1359   1.428       .  S
C1356      H1360   1.084       .  S
N1357      O1367   1.262       .  A
N1357      O1368   1.262       .  A
N1359      O1365   1.262       .  A
N1359      O1366   1.262       .  A
C1369      C1370   1.404       .  A
C1369      C1374   1.403       .  A
C1369      H1379   1.084       .  S
C1370      C1375   1.492       .  S
C1370      C1371   1.412       .  A
C1371      C1372   1.405       .  A
C1371      N1376   1.431       .  S
C1372      C1373   1.408       .  A
C1372      H1377   1.084       .  S
C1373      C1374   1.416       .  A
C1374      N1378   1.429       .  S
C1375      C1380   1.414       .  A
C1375      C1384   1.402       .  A
N1376      O1391   1.262       .  A
N1376      O1392   1.262       .  A
N1378      O1389   1.262       .  A
N1378      O1390   1.262       .  A
C1380      C1381   1.407       .  A
C1380      N1385   1.431       .  S
C1381      C1382   1.408       .  A
C1381      H1386   1.084       .  S
C1382      C1383   1.415       .  A
C1383      C1384   1.401       .  A
C1383      N1387   1.428       .  S
C1384      H1388   1.084       .  S
N1385      O1395   1.262       .  A
N1385      O1396   1.262       .  A
N1387      O1393   1.262       .  A
N1387      O1394   1.262       .  A
C1397      C1398   1.401       .  A
C1397      C1402   1.403       .  A
C1397      H1407   1.084       .  S
C1398      C1403   1.482       .  S
C1398      C1399   1.409       .  A
C1399      C1400   1.396       .  A
C1399      N1404   1.430       .  S
C1400      C1401   1.406       .  A
C1400      H1405   1.083       .  S
C1401      C1402   1.419       .  A
C1402      N1406   1.429       .  S
C1403      C1408   1.410       .  A
C1403      C1412   1.400       .  A
N1404      O1419   1.262       .  A
N1404      O1420   1.262       .  A
N1406      O1417   1.262       .  A
N1406      O1418   1.262       .  A
C1408      C1409   1.403       .  A
C1408      N1413   1.428       .  S
C1409      C1410   1.405       .  A
C1409      H1414   1.083       .  S
C1410      C1411   1.413       .  A
C1411      C1412   1.397       .  A
C1411      N1415   1.428       .  S
C1412      H1416   1.084       .  S
N1413      O1423   1.262       .  A
N1413      O1424   1.262       .  A
N1415      O1421   1.262       .  A
N1415      O1422   1.262       .  A
C1425      C1426   1.404       .  A
C1425      C1430   1.408       .  A
C1425      H1435   1.083       .  S
C1426      C1431   1.496       .  S
C1426      C1427   1.413       .  A
C1427      C1428   1.402       .  A
C1427      N1432   1.430       .  S
C1428      C1429   1.404       .  A
C1428      H1433   1.084       .  S
C1429      C1430   1.414       .  A
C1430      N1434   1.427       .  S
C1431      C1436   1.413       .  A
C1431      C1440   1.402       .  A
N1432      O1447   1.262       .  A
N1432      O1448   1.262       .  A
N1434      O1445   1.261       .  A
N1434      O1446   1.262       .  A
C1436      C1437   1.410       .  A
C1436      N1441   1.428       .  S
C1437      C1438   1.409       .  A
C1437      H1442   1.083       .  S
C1438      C1439   1.418       .  A
C1439      C1440   1.399       .  A
C1439      N1443   1.430       .  S
C1440      H1444   1.084       .  S
N1441      O1451   1.262       .  A
N1441      O1452   1.262       .  A
N1443      O1449   1.262       .  A
N1443      O1450   1.262       .  A
C1453      C1454   1.397       .  A
C1453      C1458   1.400       .  A
C1453      H1463   1.084       .  S
C1454      C1459   1.473       .  S
C1454      C1455   1.406       .  A
C1455      C1456   1.397       .  A
C1455      N1460   1.429       .  S
C1456      C1457   1.407       .  A
C1456      H1461   1.084   1_554  S
C1457      C1458   1.417       .  A
C1458      N1462   1.428       .  S
C1459      C1464   1.404       .  A
C1459      C1468   1.398       .  A
N1460      O1475   1.262   1_554  A
N1460      O1476   1.262       .  A
N1462      O1473   1.261       .  A
N1462      O1474   1.262   1_554  A
C1464      C1465   1.394       .  A
C1464      N1469   1.430       .  S
C1465      C1466   1.410       .  A
C1465      H1470   1.083       .  S
C1466      C1467   1.416       .  A
C1467      C1468   1.404       .  A
C1467      N1471   1.424       .  S
C1468      H1472   1.084   1_554  S
N1469      O1479   1.262       .  A
N1469      O1480   1.262       .  A
N1471      O1477   1.261       .  A
N1471      O1478   1.260   1_554  A
C1481      C1482   1.406       .  A
C1481      C1486   1.407       .  A
C1481      H1491   1.083       .  S
C1482      C1487   1.490       .  S
C1482      C1483   1.410       .  A
C1483      C1484   1.398       .  A
C1483      N1488   1.430       .  S
C1484      C1485   1.405       .  A
C1484      H1489   1.084       .  S
C1485      C1486   1.414       .  A
C1486      N1490   1.429       .  S
C1487      C1492   1.411       .  A
C1487      C1496   1.403       .  A
N1488      O1503   1.262       .  A
N1488      O1504   1.262       .  A
N1490      O1501   1.262       .  A
N1490      O1502   1.262       .  A
C1492      C1493   1.406       .  A
C1492      N1497   1.428       .  S
C1493      C1494   1.406       .  A
C1493      H1498   1.084       .  S
C1494      C1495   1.413       .  A
C1495      C1496   1.400       .  A
C1495      N1499   1.430       .  S
C1496      H1500   1.084       .  S
N1497      O1507   1.262       .  A
N1497      O1508   1.262       .  A
N1499      O1505   1.262       .  A
N1499      O1506   1.262       .  A
C1509      C1510   1.404       .  A
C1509      C1514   1.405       .  A
C1509      H1519   1.084       .  S
C1510      C1515   1.485       .  S
C1510      C1511   1.408       .  A
C1511      C1512   1.402       .  A
C1511      N1516   1.430       .  S
C1512      C1513   1.409       .  A
C1512      H1517   1.084       .  S
C1513      C1514   1.413       .  A
C1514      N1518   1.429       .  S
C1515      C1520   1.409       .  A
C1515      C1524   1.397       .  A
N1516      O1531   1.262       .  A
N1516      O1532   1.262       .  A
N1518      O1529   1.261       .  A
N1518      O1530   1.262       .  A
C1520      C1521   1.407       .  A
C1520      N1525   1.428       .  S
C1521      C1522   1.409       .  A
C1521      H1526   1.083       .  S
C1522      C1523   1.419       .  A
C1523      C1524   1.398       .  A
C1523      N1527   1.428       .  S
C1524      H1528   1.084       .  S
N1525      O1535   1.262       .  A
N1525      O1536   1.262       .  A
N1527      O1533   1.262       .  A
N1527      O1534   1.262       .  A
C1537      C1538   1.402       .  A
C1537      C1542   1.405       .  A
C1537      H1547   1.084       .  S
C1538      C1543   1.481       .  S
C1538      C1539   1.406       .  A
C1539      C1540   1.400       .  A
C1539      N1544   1.429       .  S
C1540      C1541   1.408       .  A
C1540      H1545   1.084       .  S
C1541      C1542   1.416       .  A
C1542      N1546   1.429       .  S
C1543      C1548   1.406       .  A
C1543      C1552   1.400       .  A
N1544      O1559   1.262       .  A
N1544      O1560   1.262       .  A
N1546      O1557   1.262       .  A
N1546      O1558   1.262       .  A
C1548      C1549   1.401       .  A
C1548      N1553   1.429       .  S
C1549      C1550   1.409       .  A
C1549      H1554   1.084       .  S
C1550      C1551   1.417       .  A
C1551      C1552   1.404       .  A
C1551      N1555   1.428       .  S
C1552      H1556   1.084       .  S
N1553      O1563   1.262       .  A
N1553      O1564   1.262       .  A
N1555      O1561   1.262       .  A
N1555      O1562   1.262       .  A
C1565      C1566   1.406       .  A
C1565      C1570   1.407       .  A
C1565      H1575   1.083       .  S
C1566      C1571   1.494       .  S
C1566      C1567   1.412       .  A
C1567      C1568   1.398       .  A
C1567      N1572   1.430       .  S
C1568      C1569   1.404       .  A
C1568      H1573   1.084       .  S
C1569      C1570   1.415       .  A
C1570      N1574   1.429       .  S
C1571      C1576   1.414       .  A
C1571      C1580   1.406       .  A
N1572      O1587   1.262       .  A
N1572      O1588   1.262       .  A
N1574      O1585   1.262       .  A
N1574      O1586   1.262       .  A
C1576      C1577   1.405       .  A
C1576      N1581   1.429       .  S
C1577      C1578   1.402       .  A
C1577      H1582   1.084       .  S
C1578      C1579   1.408       .  A
C1579      C1580   1.400       .  A
C1579      N1583   1.429       .  S
C1580      H1584   1.083       .  S
N1581      O1591   1.262       .  A
N1581      O1592   1.262       .  A
N1583      O1589   1.262       .  A
N1583      O1590   1.262       .  A
C1593      C1594   1.402   1_445  A
C1593      C1598   1.405       .  A
C1593      H1603   1.084       .  S
C1594      C1599   1.483   1_655  S
C1594      C1595   1.407       .  A
C1595      C1596   1.402       .  A
C1595      N1600   1.429       .  S
C1596      C1597   1.407       .  A
C1596      H1601   1.084       .  S
C1597      C1598   1.415   1_665  A
C1598      N1602   1.429       .  S
C1599      C1604   1.409   1_465  A
C1599      C1608   1.402       .  A
N1600      O1615   1.262   1_655  A
N1600      O1616   1.262       .  A
N1602      O1613   1.262   1_455  A
N1602      O1614   1.262       .  A
C1604      C1605   1.403       .  A
C1604      N1609   1.428       .  S
C1605      C1606   1.403   1_645  A
C1605      H1610   1.084       .  S
C1606      C1607   1.412       .  A
C1607      C1608   1.404       .  A
C1607      N1611   1.429       .  S
C1608      H1612   1.084       .  S
N1609      O1619   1.262       .  A
N1609      O1620   1.261   1_545  A
N1611      O1617   1.262       .  A
N1611      O1618   1.262       .  A
C1621      C1622   1.399   1_565  A
C1621      C1626   1.398       .  A
C1621      H1631   1.084       .  S
C1622      C1627   1.481       .  S
C1622      C1623   1.410   1_455  A
C1623      C1624   1.406       .  A
C1623      N1628   1.428       .  S
C1624      C1625   1.404   1_655  A
C1624      H1629   1.084       .  S
C1625      C1626   1.414   1_545  A
C1626      N1630   1.430       .  S
C1627      C1632   1.407   1_545  A
C1627      C1636   1.404   1_556  A
N1628      O1643   1.262       .  A
N1628      O1644   1.262   1_545  A
N1630      O1641   1.262       .  A
N1630      O1642   1.262   1_565  A
C1632      C1633   1.398   1_556  A
C1632      N1637   1.429       .  S
C1633      C1634   1.404   1_565  A
C1633      H1638   1.084       .  S
C1634      C1635   1.411       .  A
C1635      C1636   1.406       .  A
C1635      N1639   1.428       .  S
C1636      H1640   1.084   1_554  S
N1637      O1647   1.262       .  A
N1637      O1648   1.262   1_455  A
N1639      O1645   1.262       .  A
N1639      O1646   1.262   1_455  A
C1649      C1650   1.400       .  A
C1649      C1654   1.397       .  A
C1649      H1659   1.084       .  S
C1650      C1655   1.483       .  S
C1650      C1651   1.409       .  A
C1651      C1652   1.404       .  A
C1651      N1656   1.429       .  S
C1652      C1653   1.409       .  A
C1652      H1657   1.084       .  S
C1653      C1654   1.418       .  A
C1654      N1658   1.429       .  S
C1655      C1660   1.410       .  A
C1655      C1664   1.399       .  A
N1656      O1671   1.262       .  A
N1656      O1672   1.262       .  A
N1658      O1669   1.262       .  A
N1658      O1670   1.262       .  A
C1660      C1661   1.405       .  A
C1660      N1665   1.430       .  S
C1661      C1662   1.407       .  A
C1661      H1666   1.084       .  S
C1662      C1663   1.418       .  A
C1663      C1664   1.397       .  A
C1663      N1667   1.431       .  S
C1664      H1668   1.084       .  S
N1665      O1675   1.262       .  A
N1665      O1676   1.262       .  A
N1667      O1673   1.262       .  A
N1667      O1674   1.262       .  A
C1677      C1678   1.402       .  A
C1677      C1682   1.406       .  A
C1677      H1687   1.084       .  S
C1678      C1683   1.485       .  S
C1678      C1679   1.406       .  A
C1679      C1680   1.402       .  A
C1679      N1684   1.429       .  S
C1680      C1681   1.410       .  A
C1680      H1685   1.083       .  S
C1681      C1682   1.418       .  A
C1682      N1686   1.429       .  S
C1683      C1688   1.408       .  A
C1683      C1692   1.399       .  A
N1684      O1699   1.262       .  A
N1684      O1700   1.262       .  A
N1686      O1697   1.262       .  A
N1686      O1698   1.262       .  A
C1688      C1689   1.405       .  A
C1688      N1693   1.428       .  S
C1689      C1690   1.409       .  A
C1689      H1694   1.083       .  S
C1690      C1691   1.421       .  A
C1691      C1692   1.402       .  A
C1691      N1695   1.429       .  S
C1692      H1696   1.084       .  S
N1693      O1703   1.262       .  A
N1693      O1704   1.262       .  A
N1695      O1701   1.262       .  A
N1695      O1702   1.262       .  A
C1705      C1706   1.408       .  A
C1705      C1710   1.407       .  A
C1705      H1715   1.083       .  S
C1706      C1711   1.489       .  S
C1706      C1707   1.412       .  A
C1707      C1708   1.393       .  A
C1707      N1712   1.430       .  S
C1708      C1709   1.401       .  A
C1708      H1713   1.084       .  S
C1709      C1710   1.411       .  A
C1710      N1714   1.429       .  S
C1711      C1716   1.413       .  A
C1711      C1720   1.405       .  A
N1712      O1727   1.262       .  A
N1712      O1728   1.262       .  A
N1714      O1725   1.262       .  A
N1714      O1726   1.262       .  A
C1716      C1717   1.404       .  A
C1716      N1721   1.429       .  S
C1717      C1718   1.403       .  A
C1717      H1722   1.084       .  S
C1718      C1719   1.407       .  A
C1719      C1720   1.397       .  A
C1719      N1723   1.429       .  S
C1720      H1724   1.083       .  S
N1721      O1731   1.262       .  A
N1721      O1732   1.262       .  A
N1723      O1729   1.262       .  A
N1723      O1730   1.262       .  A
C1733      C1734   1.402       .  A
C1733      C1738   1.406       .  A
C1733      H1743   1.084       .  S
C1734      C1739   1.491       .  S
C1734      C1735   1.410       .  A
C1735      C1736   1.404       .  A
C1735      N1740   1.428       .  S
C1736      C1737   1.408       .  A
C1736      H1741   1.083       .  S
C1737      C1738   1.420       .  A
C1738      N1742   1.429       .  S
C1739      C1744   1.413       .  A
C1739      C1748   1.400       .  A
N1740      O1755   1.262       .  A
N1740      O1756   1.262       .  A
N1742      O1753   1.262       .  A
N1742      O1754   1.262       .  A
C1744      C1745   1.411       .  A
C1744      N1749   1.428       .  S
C1745      C1746   1.407       .  A
C1745      H1750   1.083       .  S
C1746      C1747   1.416       .  A
C1747      C1748   1.399       .  A
C1747      N1751   1.429       .  S
C1748      H1752   1.084       .  S
N1749      O1759   1.262       .  A
N1749      O1760   1.262       .  A
N1751      O1757   1.262       .  A
N1751      O1758   1.262       .  A
