geometry optimzed in LAMMPS
_audit_creation_date              2020-11-30 
_audit_creation_method            'lammps2cif' 
_symmetry_space_group_name_H-M    'P1' 
_symmetry_Int_Tables_number       1 
_symmetry_cell_setting            triclinic 
loop_ 
_symmetry_equiv_pos_as_xyz 
  x,y,z 
_cell_length_a                    41.28215108 
_cell_length_b                    41.57604445381272 
_cell_length_c                    30.00088036421063 
_cell_angle_alpha                 90.0295610266616 
_cell_angle_beta                  90.34565339954163 
_cell_angle_gamma                 120.26886958569162 
loop_ 
_atom_site_label 
_atom_site_type_symbol 
_atom_site_fract_x 
_atom_site_fract_y 
_atom_site_fract_z 
_atom_site_charge 
Fe1        Fe  0.44602745  0.56718362  0.36877687     1.65800
Fe2        Fe  0.48889210  0.51679386  0.35649643     1.73200
Fe3        Fe  0.46266208  0.54772308  0.26563831     1.54400
O4          O  0.40583461  0.52735856  0.26688697    -0.80200
O5          O  0.53146191  0.53597777  0.30849056    -0.78500
O6          O  0.40233614  0.55729464  0.32628208    -0.82700
O7          O  0.47996544  0.61807484  0.34027577    -0.77600
O8          O  0.45037978  0.49375850  0.25449240    -0.79400
O9          O  0.52477453  0.56163156  0.39685688    -0.82100
C10         C  0.48344262  0.62673016  0.29935911     0.98700
C11         C  0.38843961  0.53866445  0.29078401     1.06100
O12         O  0.46596353  0.54377331  0.33022092    -1.11100
O13         O  0.44865287  0.49369101  0.40724663    -0.73500
O14         O  0.41137294  0.51768270  0.39981279    -0.77000
O15         O  0.47422566  0.60273481  0.26827804    -0.77700
C16         C  0.41880002  0.49419008  0.41691806     0.97600
O17         O  0.48621157  0.58128141  0.41735951    -0.75700
O18         O  0.45513503  0.46975853  0.31872733    -0.80800
C19         C  0.54021506  0.55665308  0.27400952     1.00200
C20         C  0.44546935  0.46623095  0.27794628     1.06100
O21         O  0.51886864  0.56761052  0.25826441    -0.76500
C22         C  0.51679920  0.58143734  0.42166599     1.04400
Fe23       Fe  0.44486738  0.88804046  0.38475227     1.65800
Fe24       Fe  0.49703329  0.98127194  0.36673253     1.73200
Fe25       Fe  0.46279584  0.91961905  0.27941930     1.54400
O26         O  0.48365361  0.88360138  0.28427410    -0.80200
O27         O  0.47332101  0.00043946  0.31994298    -0.78500
O28         O  0.45551149  0.85367398  0.34608033    -0.82700
O29         O  0.39297272  0.86804093  0.35572640    -0.77600
O30         O  0.51624762  0.96139855  0.26459884    -0.79400
O31         O  0.45501310  0.97413347  0.41038369    -0.82100
C32         C  0.38395083  0.86114059  0.31488365     0.98700
C33         C  0.47458703  0.85717068  0.31164723     1.06100
O34         O  0.46834802  0.92994758  0.34365758    -1.11100
O35         O  0.52391588  0.96733062  0.41594671    -0.73500
O36         O  0.49506881  0.90510090  0.41607104    -0.77000
O37         O  0.40796082  0.87586779  0.28405288    -0.77700
C38         C  0.52170088  0.93685631  0.42785360     0.97600
O39         O  0.43050186  0.91512319  0.43045140    -0.75700
O40         O  0.54251746  0.99500607  0.32566261    -0.80800
C41         C  0.45149833  0.98690175  0.28627091     1.00200
C42         C  0.54434543  0.98688402  0.28526083     1.06100
O43         O  0.44226512  0.95517252  0.26982715    -0.76500
C44         C  0.43360675  0.94679383  0.43489283     1.04400
Fe45       Fe  0.12373200  0.55181770  0.37650166     1.65800
Fe46       Fe  0.02912927  0.51439787  0.36367508     1.73200
Fe47       Fe  0.08739504  0.54371677  0.27230512     1.54400
O48         O  0.12931380  0.59900767  0.27764940    -0.80200
O49         O  0.00728137  0.47094217  0.31820338    -0.78500
O50         O  0.15565168  0.60077312  0.34314049    -0.82700
O51         O  0.14464602  0.52545909  0.33901226    -0.77600
O52         O  0.04922719  0.56147646  0.26437530    -0.79400
O53         O  0.03678653  0.48010477  0.40738144    -0.82100
C54         C  0.14578175  0.52043737  0.29761556     0.98700
C55         C  0.15504211  0.61577496  0.30662586     1.06100
O56         O  0.07997262  0.53665840  0.33745727    -1.11100
O57         O  0.04618996  0.55605384  0.41132439    -0.73500
O58         O  0.10777607  0.57996334  0.41860998    -0.77000
O59         O  0.12695585  0.52713861  0.26943084    -0.77700
C60         C  0.07766240  0.57926516  0.42864187     0.97600
O61         O  0.09847226  0.50482960  0.41438714    -0.75700
O62         O  0.01287165  0.54455064  0.32407898    -0.80800
C63         C  0.01739215  0.46514292  0.28049376     1.00200
C64         C  0.02226811  0.55989349  0.28618375     1.06100
O65         O  0.04671474  0.48923609  0.26051890    -0.76500
C66         C  0.06526858  0.48000696  0.42312761     1.04400
Fe67       Fe  0.45399421  0.22985782  0.04764852     1.65800
Fe68       Fe  0.35918871  0.17976716  0.03485702     1.73200
Fe69       Fe  0.41636655  0.21075471  0.94443164     1.54400
O70         O  0.46207362  0.26426122  0.94671892    -0.80200
O71         O  0.34285186  0.13332365  0.99502675    -0.78500
O72         O  0.47463430  0.28100907  0.01778713    -0.82700
O73         O  0.48524815  0.21649484  0.00624799    -0.77600
O74         O  0.38221671  0.23341411  0.93832122    -0.79400
O75         O  0.37447245  0.15386755  0.08334203    -0.82100
C76         C  0.47910003  0.19726576  0.97107152     0.98700
C77         C  0.47941426  0.28875186  0.97659018     1.06100
O78         O  0.40966819  0.20673934  0.00908119    -1.11100
O79         O  0.36970472  0.22314459  0.07731098    -0.73500
O80         O  0.42982587  0.24696742  0.09480044    -0.77000
O81         O  0.45076163  0.18783797  0.94612123    -0.77700
C82         C  0.39849168  0.24504192  0.10013792     0.97600
O83         O  0.43680999  0.18046303  0.07988531    -0.75700
O84         O  0.33827403  0.20265377  0.98938906    -0.80800
C85         C  0.34829705  0.13065647  0.95394770     1.00200
C86         C  0.35101552  0.22465752  0.95625128     1.06100
O87         O  0.37215665  0.15830746  0.93178533    -0.76500
C88         C  0.40508286  0.15517905  0.09364106     1.04400
Fe89       Fe  0.76888251  0.22193120  0.03685680     1.65800
Fe90       Fe  0.82213682  0.18206171  0.02344083     1.73200
Fe91       Fe  0.78431736  0.20159577  0.93337127     1.54400
O92         O  0.72876381  0.18939079  0.93910109    -0.80200
O93         O  0.86652141  0.21340111  0.98120702    -0.78500
O94         O  0.71657737  0.18642010  0.01145538    -0.82700
O95         O  0.77635413  0.26320550  0.99262787    -0.77600
O96         O  0.76449067  0.14558765  0.92990429    -0.79400
O97         O  0.84816521  0.22521487  0.07026878    -0.82100
C98         C  0.79326089  0.27579234  0.95598593     0.98700
C99         C  0.70579183  0.18111082  0.97114079     1.06100
O100        O  0.79199389  0.20185142  0.99787085    -1.11100
O101        O  0.78045570  0.14812448  0.06787523    -0.73500
O102        O  0.75733229  0.18402081  0.08719750    -0.77000
O103        O  0.80391377  0.25790914  0.93189532    -0.77700
C104        C  0.75976941  0.15508476  0.09240963     0.97600
O105        O  0.81957075  0.25839421  0.06485609    -0.75700
O106        O  0.79984244  0.13708283  0.97960545    -0.80800
C107        C  0.86756864  0.22008781  0.93972717     1.00200
C108        C  0.77623231  0.12561686  0.94750841     1.06100
O109        O  0.83836135  0.21369007  0.91804816    -0.76500
C110        C  0.84602259  0.25405915  0.07938306     1.04400
Fe111      Fe  0.78088957  0.54125538  0.02955387     1.65800
Fe112      Fe  0.82292888  0.63500648  0.02091781     1.73200
Fe113      Fe  0.79686676  0.58010474  0.92793973     1.54400
O114        O  0.80663964  0.53575753  0.92792419    -0.80200
O115        O  0.79070217  0.65034397  0.98338463    -0.78500
O116        O  0.81419330  0.52468348  0.99854793    -0.82700
O117        O  0.73703436  0.50891898  0.98686699    -0.77600
O118        O  0.85360164  0.61569590  0.92153803    -0.79400
O119        O  0.78151988  0.61684832  0.07004654    -0.82100
C120        C  0.72259955  0.51474123  0.95266662     0.98700
C121        C  0.81567497  0.51951068  0.95715183     1.06100
O122        O  0.80033016  0.58571972  0.99280757    -1.11100
O123        O  0.85831958  0.62524934  0.06123675    -0.73500
O124        O  0.82155567  0.56564157  0.07782124    -0.77000
O125        O  0.73964250  0.54415855  0.92968028    -0.77700
C126        C  0.85164972  0.59638294  0.08303558     0.97600
O127        O  0.74640985  0.55520025  0.06274650    -0.75700
O128        O  0.86595803  0.65852308  0.97428607    -0.80800
C129        C  0.78241515  0.64608292  0.94214897     1.00200
C130        C  0.87507897  0.64704657  0.93977046     1.06100
O131        O  0.78640032  0.62317443  0.91819388    -0.76500
C132        C  0.75220843  0.58584440  0.07910215     1.04400
Fe133      Fe  0.79461614  0.89536092  0.71079900     1.65800
Fe134      Fe  0.70110779  0.84735115  0.69513881     1.73200
Fe135      Fe  0.75995003  0.87531352  0.60635506     1.54400
O136        O  0.79534595  0.93202233  0.60735823    -0.80200
O137        O  0.68023811  0.80425809  0.64821758    -0.78500
O138        O  0.82892092  0.93777009  0.66778317    -0.82700
O139        O  0.81332917  0.86213866  0.68580123    -0.77600
O140        O  0.71692225  0.88568784  0.59297366    -0.79400
O141        O  0.71303256  0.81473146  0.73617795    -0.82100
C142        C  0.81864569  0.85674850  0.64555060     0.98700
C143        C  0.82411200  0.95045901  0.63151172     1.06100
O144        O  0.75162069  0.87261695  0.67048860    -1.11100
O145        O  0.71583087  0.88774353  0.74501871    -0.73500
O146        O  0.77679997  0.92913905  0.73669080    -0.77000
O147        O  0.80411213  0.86486583  0.61297338    -0.77700
C148        C  0.74490170  0.91936045  0.75298398     0.97600
O149        O  0.76893135  0.85707794  0.76161878    -0.75700
O150        O  0.68493444  0.87752053  0.65568954    -0.80800
C151        C  0.69328323  0.79659194  0.61402892     1.00200
C152        C  0.69205365  0.88790976  0.61533659     1.06100
O153        O  0.72507744  0.81930041  0.59806954    -0.76500
C154        C  0.74003380  0.82491217  0.76354016     1.04400
Fe155      Fe  0.10725083  0.88961278  0.70564228     1.65800
Fe156      Fe  0.16102715  0.85052070  0.69230823     1.73200
Fe157      Fe  0.12968328  0.87671867  0.60219136     1.54400
O158        O  0.07455171  0.86489716  0.60337741    -0.80200
O159        O  0.20874765  0.88567189  0.65648183    -0.78500
O160        O  0.05713137  0.85506444  0.67451528    -0.82700
O161        O  0.11681337  0.93324008  0.66431871    -0.77600
O162        O  0.10990830  0.82094789  0.59386133    -0.79400
O163        O  0.18216315  0.88887959  0.74465137    -0.82100
C164        C  0.13541895  0.94843691  0.62932328     0.98700
C165        C  0.04959183  0.85348315  0.63329223     1.06100
O166        O  0.13313088  0.87259833  0.66674053    -1.11100
O167        O  0.11536954  0.81300129  0.72966081    -0.73500
O168        O  0.09351211  0.84914166  0.75309526    -0.77000
O169        O  0.14888012  0.93297413  0.60532694    -0.77700
C170        C  0.09447821  0.81924832  0.75472163     0.97600
O171        O  0.15559811  0.92419438  0.73957209    -0.75700
O172        O  0.14324149  0.80966656  0.64338110    -0.80800
C173        C  0.21209079  0.89486640  0.61560057     1.00200
C174        C  0.12111427  0.80004809  0.60996629     1.06100
O175        O  0.18416203  0.88933522  0.59193618    -0.76500
C176        C  0.17940377  0.91686048  0.75642103     1.04400
Fe177      Fe  0.10599740  0.21042876  0.70024131     1.65800
Fe178      Fe  0.15633091  0.30524832  0.69210489     1.73200
Fe179      Fe  0.13009128  0.25016237  0.59758619     1.54400
O180        O  0.14711288  0.21131798  0.59829251    -0.80200
O181        O  0.13213527  0.32581644  0.64820127    -0.78500
O182        O  0.12597213  0.18240384  0.66314924    -0.82700
O183        O  0.05703593  0.18840199  0.66356654    -0.77600
O184        O  0.18548841  0.29067831  0.59103620    -0.79400
O185        O  0.11212929  0.29291110  0.73510120    -0.82100
C186        C  0.04967177  0.18878104  0.62254887     0.98700
C187        C  0.14167487  0.18602472  0.62580661     1.06100
O188        O  0.13101147  0.25537631  0.66332945    -1.11100
O189        O  0.18304790  0.29010484  0.73978962    -0.73500
O190        O  0.15196952  0.22816110  0.74105638    -0.77000
O191        O  0.07438984  0.20877483  0.59432730    -0.77700
C192        C  0.17852251  0.25938493  0.75448761     0.97600
O193        O  0.08262603  0.23157333  0.74283274    -0.75700
O194        O  0.20399397  0.32481141  0.65296817    -0.80800
C195        C  0.11527553  0.31534785  0.61082319     1.00200
C196        C  0.21054965  0.31705311  0.61427570     1.06100
O197        O  0.11243196  0.28778438  0.58928323    -0.76500
C198        C  0.08670739  0.26303142  0.75257378     1.04400
C199        C  0.14309715  0.10641444  0.56774488     0.14100
C200        C  0.15962771  0.09542762  0.60087728     0.01100
C201        C  0.17526732  0.11772103  0.63897416     0.16100
C202        C  0.17170033  0.14901315  0.64564208     0.25500
C203        C  0.15281451  0.15862013  0.61403493    -0.40900
C204        C  0.14001129  0.13814024  0.57407199     0.32500
C205        C  0.15220506  0.05692794  0.60177522     0.01100
F206        F  0.19089088  0.10715935  0.67158667    -0.13200
F207        F  0.12121198  0.14659885  0.54332661    -0.13700
C208        C  0.17786909  0.04722375  0.58519548     0.16100
C209        C  0.17194273  0.01127258  0.59230460     0.25500
C210        C  0.14052917  0.98507073  0.61666094    -0.40800
C211        C  0.11392307  0.99459190  0.63070317     0.32400
C212        C  0.11982207  0.03014858  0.62340427     0.14100
F213        F  0.20899963  0.07276925  0.56339451    -0.13200
F214        F  0.08214804  0.96953961  0.65195604    -0.13700
F215        F  0.19761054  0.00270082  0.57712393    -0.16000
F216        F  0.09442659  0.03898969  0.63893000    -0.14500
F217        F  0.12703584  0.08458209  0.53128308    -0.14500
F218        F  0.18479704  0.16876622  0.68413806    -0.15900
C219        C  0.87265194  0.04934902  0.58760969     0.14100
C220        C  0.91034165  0.06050544  0.59626859     0.01100
C221        C  0.91948444  0.03481526  0.61397722     0.16100
C222        C  0.89138267  0.99887152  0.62457012     0.25500
C223        C  0.85351761  0.98773148  0.61710165    -0.40900
C224        C  0.84434375  0.01288658  0.59737236     0.32500
C225        C  0.94062402  0.09956401  0.59204013     0.01100
F226        F  0.95577464  0.04520314  0.62294155    -0.13200
F227        F  0.80797344  0.00273363  0.58960983    -0.13700
C228        C  0.94516614  0.12500724  0.62569236     0.16100
C229        C  0.98035915  0.15645365  0.63337800     0.25500
C230        C  0.01111647  0.16294860  0.60701084    -0.40800
C231        C  0.00515589  0.14024220  0.56952699     0.32400
C232        C  0.97009420  0.10850618  0.56230827     0.14100
F233        F  0.91671251  0.11718923  0.65419309    -0.13200
F234        F  0.03421747  0.14621952  0.54303402    -0.13700
F235        F  0.98502628  0.17912730  0.66841821    -0.16000
F236        F  0.96597876  0.08439040  0.52923896    -0.14500
F237        F  0.86331744  0.07390342  0.57071596    -0.14500
F238        F  0.90123884  0.97495970  0.64237849    -0.15900
C239        C  0.88031066  0.82795115  0.58438778     0.14100
C240        C  0.90180420  0.82633093  0.61982359     0.01100
C241        C  0.89271860  0.83022234  0.66375097     0.16100
C242        C  0.86412851  0.83772650  0.67215143     0.25500
C243        C  0.84426864  0.84228087  0.63661854    -0.40900
C244        C  0.85161066  0.83569747  0.59266354     0.32500
C245        C  0.93693362  0.82611699  0.61189210     0.01100
F246        F  0.91357850  0.82979045  0.69869865    -0.13200
F247        F  0.83207456  0.83804534  0.55747546    -0.13700
C248        C  0.96605746  0.85570910  0.58834013     0.16100
C249        C  0.00265659  0.86241197  0.59189596     0.25500
C250        C  0.01066395  0.84038480  0.62019658    -0.40800
C251        C  0.98123114  0.80909337  0.64084013     0.32400
C252        C  0.94440558  0.80144448  0.63574842     0.14100
F253        F  0.95993049  0.88060066  0.56605026    -0.13200
F254        F  0.98842902  0.78726777  0.66798238    -0.13700
F255        F  0.03079198  0.89296583  0.57186973    -0.16000
F256        F  0.91642626  0.77187552  0.65736304    -0.14500
F257        F  0.88814764  0.82356434  0.54168191    -0.14500
F258        F  0.85764187  0.84263308  0.71526358    -0.15900
C259        C  0.75132005  0.71741764  0.92435225     0.14100
C260        C  0.74999722  0.71856589  0.87760705     0.01100
C261        C  0.75699416  0.69427547  0.85247338     0.16100
C262        C  0.76618064  0.66994775  0.87342676     0.25500
C263        C  0.76886803  0.66942334  0.92037916    -0.40900
C264        C  0.76040687  0.69291870  0.94561287     0.32500
C265        C  0.74346184  0.74624474  0.85427277     0.01100
F266        F  0.75657809  0.69526633  0.80722599    -0.13200
F267        F  0.76115976  0.69250927  0.99085337    -0.13700
C268        C  0.76912730  0.78446702  0.85913401     0.16100
C269        C  0.76683322  0.81031548  0.83137823     0.25500
C270        C  0.73885442  0.79836254  0.79781682    -0.40800
C271        C  0.71162934  0.76015986  0.79531486     0.32400
C272        C  0.71403125  0.73445683  0.82318373     0.14100
F273        F  0.79788934  0.79662221  0.88891120    -0.13200
F274        F  0.68360337  0.74720191  0.76448697    -0.13700
F275        F  0.79291308  0.84691225  0.83655704    -0.16000
F276        F  0.68832692  0.69769544  0.81866658    -0.14500
F277        F  0.74399730  0.74018377  0.94941164    -0.14500
F278        F  0.77367124  0.64785955  0.84724897    -0.15900
C279        C  0.96608513  0.68045782  0.87761294     0.14100
C280        C  0.97782735  0.71827492  0.87128332     0.01100
C281        C  0.95665144  0.73283732  0.88986003     0.16100
C282        C  0.92401802  0.70986785  0.91368706     0.25500
C283        C  0.91158616  0.67178758  0.91871825    -0.40900
C284        C  0.93296732  0.65727242  0.90062768     0.32500
C285        C  0.01071684  0.74206524  0.84306742     0.01100
F286        F  0.96653818  0.76893264  0.88306605    -0.13200
F287        F  0.92177365  0.62063589  0.90520956    -0.13700
C288        C  0.01166563  0.73195875  0.79848917     0.16100
C289        C  0.04075824  0.75608463  0.77039019     0.25500
C290        C  0.06898988  0.79083161  0.78626530    -0.40800
C291        C  0.06867846  0.80055227  0.83106917     0.32400
C292        C  0.03998325  0.77619839  0.85939547     0.14100
F293        F  0.98307963  0.69985331  0.78132524    -0.13200
F294        F  0.09561602  0.83419053  0.84696205    -0.13700
F295        F  0.03965788  0.74688061  0.72674788    -0.16000
F296        F  0.04019847  0.78636982  0.90246940    -0.14500
F297        F  0.98663467  0.66596806  0.86123847    -0.14500
F298        F  0.90329914  0.72438228  0.92946627    -0.15900
C299        C  0.96929557  0.24987112  0.91360126     0.14100
C300        C  0.97076975  0.25601367  0.86741214     0.01100
C301        C  0.93935791  0.25362275  0.84581891     0.16100
C302        C  0.90630484  0.24316729  0.86939629     0.25500
C303        C  0.90392904  0.23494701  0.91545264    -0.40900
C304        C  0.93638846  0.23954248  0.93738059     0.32500
C305        C  0.00315950  0.26040517  0.84104516     0.01100
F306        F  0.93993291  0.25941216  0.80121021    -0.13200
F307        F  0.93620481  0.23290506  0.98171430    -0.13700
C308        C  0.01194430  0.23189304  0.84165915     0.16100
C309        C  0.03998189  0.23360640  0.81426081     0.25500
C310        C  0.06000542  0.26390309  0.78513857    -0.40800
C311        C  0.05232815  0.29334941  0.78594472     0.32400
C312        C  0.02391259  0.29141713  0.81337708     0.14100
F313        F  0.99209980  0.20133356  0.86747840    -0.13200
F314        F  0.07123154  0.32332562  0.75902401    -0.13700
F315        F  0.04710504  0.20509998  0.81601273    -0.16000
F316        F  0.01630829  0.31959895  0.81247373    -0.14500
F317        F  0.99959296  0.25293546  0.93555635    -0.14500
F318        F  0.87634535  0.23999154  0.84653213    -0.15900
C319        C  0.72457314  0.95888311  0.85532145     0.14100
C320        C  0.74317484  0.99690174  0.84492660     0.01100
C321        C  0.76064699  0.00911274  0.80348802     0.16100
C322        C  0.76028119  0.98364978  0.77293883     0.25500
C323        C  0.74204211  0.94552159  0.78336377    -0.40900
C324        C  0.72374792  0.93322271  0.82448878     0.32500
C325        C  0.74665095  0.02463195  0.87781349     0.01100
F326        F  0.77906303  0.04594245  0.79329165    -0.13200
F327        F  0.70696322  0.89669019  0.83575931    -0.13700
C328        C  0.77675850  0.03953980  0.90807490     0.16100
C329        C  0.78498819  0.07105220  0.93321415     0.25500
C330        C  0.76331525  0.08832553  0.92801530    -0.40800
C331        C  0.73133364  0.07141067  0.89994965     0.32400
C332        C  0.72324708  0.03987334  0.87491618     0.14100
F333        F  0.79968537  0.02501650  0.91099629    -0.13200
F334        F  0.70866914  0.08613241  0.89535810    -0.13700
F335        F  0.81578510  0.08607227  0.96010257    -0.16000
F336        F  0.69368816  0.02529180  0.84610738    -0.14500
F337        F  0.70822624  0.94689670  0.89569115    -0.14500
F338        F  0.77793556  0.99621305  0.73330866    -0.15900
C339        C  0.84243908  0.37552594  0.91586346     0.14100
C340        C  0.81559512  0.38547399  0.92646544     0.01100
C341        C  0.78027883  0.35837930  0.94204308     0.16100
C342        C  0.77256293  0.32216216  0.94949155     0.25500
C343        C  0.80009876  0.31248831  0.94153068    -0.40900
C344        C  0.83466770  0.33902904  0.92310519     0.32500
C345        C  0.82515001  0.42461498  0.92703964     0.01100
F346        F  0.75398541  0.36759828  0.95243115    -0.13200
F347        F  0.86165614  0.33033102  0.91484266    -0.13700
C348        C  0.80907938  0.43743400  0.89563955     0.16100
C349        C  0.80917334  0.47062488  0.90325126     0.25500
C350        C  0.82493326  0.49106965  0.94287172    -0.40800
C351        C  0.84429327  0.47989030  0.97199341     0.32400
C352        C  0.84424294  0.44677632  0.96414674     0.14100
F353        F  0.79077424  0.41631773  0.85941244    -0.13200
F354        F  0.86124334  0.49973167  0.00950980    -0.13700
F355        F  0.79066812  0.48066052  0.87395367    -0.16000
F356        F  0.85986663  0.43460092  0.99487930    -0.14500
F357        F  0.87649208  0.40148246  0.90014072    -0.14500
F358        F  0.73839580  0.29665973  0.96551792    -0.15900
C359        C  0.22530402  0.22488080  0.83565441     0.14100
C360        C  0.25313803  0.25806135  0.85543694     0.01100
C361        C  0.25655005  0.29202783  0.84210964     0.16100
C362        C  0.23263627  0.29276611  0.80918583     0.25500
C363        C  0.20468138  0.25939602  0.78905684    -0.40900
C364        C  0.20138348  0.22542055  0.80307033     0.32500
C365        C  0.27981065  0.25655393  0.88752350     0.01100
F366        F  0.28287728  0.32447315  0.86122250    -0.13200
F367        F  0.17531681  0.19235156  0.78495763    -0.13700
C368        C  0.31819665  0.27430754  0.87763469     0.16100
C369        C  0.34202116  0.26587645  0.90186365     0.25500
C370        C  0.32778974  0.23924228  0.93638003    -0.40800
C371        C  0.29003737  0.22450546  0.94906156     0.32400
C372        C  0.26635937  0.23304515  0.92477112     0.14100
F373        F  0.33216455  0.29776482  0.84238547    -0.13200
F374        F  0.27524061  0.20020295  0.98342934    -0.13700
F375        F  0.37868100  0.28272244  0.89008781    -0.16000
F376        F  0.22965722  0.21676947  0.93623178    -0.14500
F377        F  0.22195919  0.19170075  0.84693825    -0.14500
F378        F  0.23692286  0.32618474  0.79727703    -0.15900
C379        C  0.27376037  0.03036387  0.92689174     0.14100
C380        C  0.27918889  0.02871939  0.88084339     0.01100
C381        C  0.30878372  0.05981536  0.86002952     0.16100
C382        C  0.33242639  0.09178290  0.88441462     0.25500
C383        C  0.32574572  0.09457015  0.92999583    -0.40900
C384        C  0.29637034  0.06315289  0.95109783     0.32500
C385        C  0.25301725  0.99587906  0.85348463     0.01100
F386        F  0.31393704  0.06006908  0.81532520    -0.13200
F387        F  0.28893447  0.06416518  0.99493306    -0.13700
C388        C  0.21413471  0.98214129  0.85497925     0.16100
C389        C  0.19006028  0.95499961  0.82462706     0.25500
C390        C  0.20445571  0.94184158  0.79151240    -0.40800
C391        C  0.24292919  0.95409943  0.79117966     0.32400
C392        C  0.26696725  0.98053091  0.82232074     0.14100
F393        F  0.19954612  0.99642444  0.88406976    -0.13200
F394        F  0.25754245  0.94211831  0.75915914    -0.13700
F395        F  0.15260609  0.94190175  0.82712802    -0.16000
F396        F  0.30412171  0.99204010  0.82109541    -0.14500
F397        F  0.24633157  0.00032596  0.94843182    -0.14500
F398        F  0.36140734  0.12029914  0.86263081    -0.15900
C399        C  0.63952909  0.41944846  0.93516380     0.14100
C400        C  0.60999555  0.42700328  0.93534389     0.01100
C401        C  0.61802314  0.46411020  0.93525163     0.16100
C402        C  0.65530514  0.49335124  0.93719425     0.25500
C403        C  0.68460107  0.48553703  0.94023568    -0.40900
C404        C  0.67654082  0.44848273  0.93804125     0.32500
C405        C  0.57148063  0.39577596  0.94148568     0.01100
F406        F  0.58978072  0.47186200  0.93528812    -0.13200
F407        F  0.70452596  0.44037547  0.94080803    -0.13700
C408        C  0.55417020  0.39078746  0.98304317     0.16100
C409        C  0.52255403  0.35670190  0.99363929     0.25500
C410        C  0.50783047  0.32700158  0.96275959    -0.40800
C411        C  0.52345999  0.33341846  0.91965112     0.32400
C412        C  0.55512417  0.36747748  0.90931888     0.14100
F413        F  0.56977636  0.41784302  0.01471922    -0.13200
F414        F  0.51006244  0.30594970  0.88843102    -0.13700
F415        F  0.50758040  0.35230142  0.03491506    -0.16000
F416        F  0.57143944  0.37199003  0.86886497    -0.14500
F417        F  0.63236476  0.38376895  0.93549557    -0.14500
F418        F  0.66265363  0.52901730  0.93975808    -0.15900
C419        C  0.60331716  0.14852474  0.99068432     0.14100
C420        C  0.59379935  0.15920295  0.95063844     0.01100
C421        C  0.61851972  0.16996509  0.91455093     0.16100
C422        C  0.65398591  0.17375125  0.91977520     0.25500
C423        C  0.66547646  0.16741455  0.96162344    -0.40900
C424        C  0.63883616  0.15252312  0.99620767     0.32500
C425        C  0.56321072  0.16781793  0.95021569     0.01100
F426        F  0.60943161  0.17983629  0.87534618    -0.13200
F427        F  0.64785715  0.14402788  0.03640172    -0.13700
C428        C  0.57281598  0.20525221  0.95394367     0.16100
C429        C  0.54505127  0.21462603  0.95867710     0.25500
C430        C  0.50708077  0.18678053  0.95926457    -0.40800
C431        C  0.49714712  0.14927798  0.95384248     0.32400
C432        C  0.52520483  0.13978298  0.94976355     0.14100
F433        F  0.60938360  0.23269875  0.95518272    -0.13200
F434        F  0.46059702  0.12189734  0.95521058    -0.13700
F435        F  0.55527862  0.25100726  0.96384777    -0.16000
F436        F  0.51544447  0.10342012  0.94654971    -0.14500
F437        F  0.57957496  0.13760268  0.02585920    -0.14500
F438        F  0.67802706  0.18671557  0.88492400    -0.15900
C439        C  0.99193217  0.60998933  0.20514994     0.14100
C440        C  0.95347194  0.59297334  0.21413574     0.01100
C441        C  0.93880107  0.56889774  0.25078738     0.16100
C442        C  0.96168571  0.55990871  0.27616953     0.25500
C443        C  0.99978500  0.57477977  0.26517215    -0.40900
C444        C  0.01490149  0.60099195  0.23035231     0.32500
C445        C  0.92781147  0.59512109  0.18109381     0.01100
F446        F  0.90168778  0.55233252  0.26031650    -0.13200
F447        F  0.05164237  0.61677681  0.21933174    -0.13700
C448        C  0.90264091  0.56276180  0.15769195     0.16100
C449        C  0.87894769  0.56374807  0.12519432     0.25500
C450        C  0.87935431  0.59718315  0.11555792    -0.40800
C451        C  0.90533449  0.62997344  0.13820062     0.32400
C452        C  0.92939620  0.62891041  0.17082088     0.14100
F453        F  0.90156206  0.53007541  0.16569880    -0.13200
F454        F  0.90690136  0.66277233  0.12955876    -0.13700
F455        F  0.85607625  0.53184802  0.10243929    -0.16000
F456        F  0.95372026  0.66061950  0.19291367    -0.14500
F457        F  0.00669089  0.63315019  0.16976252    -0.14500
F458        F  0.94573515  0.53443488  0.30922059    -0.15900
C459        C  0.93126407  0.38124044  0.23362861     0.14100
C460        C  0.94721143  0.36687874  0.20405175     0.01100
C461        C  0.98633687  0.38253075  0.20356468     0.16100
C462        C  0.00924009  0.41345703  0.23029928     0.25500
C463        C  0.99334442  0.42930820  0.25768923    -0.40900
C464        C  0.95411696  0.41232303  0.26001795     0.32500
C465        C  0.92319624  0.33831312  0.17075930     0.01100
F466        F  0.00249879  0.36928068  0.17533072    -0.13200
F467        F  0.93791087  0.42730270  0.28548138    -0.13700
C468        C  0.90053841  0.34539068  0.14213744     0.16100
C469        C  0.87639455  0.31846385  0.11181695     0.25500
C470        C  0.87456758  0.28368408  0.10887523    -0.40800
C471        C  0.89890333  0.27739898  0.13596406     0.32400
C472        C  0.92278690  0.30441562  0.16690866     0.14100
F473        F  0.90191521  0.37872471  0.14338220    -0.13200
F474        F  0.89894869  0.24481572  0.13355858    -0.13700
F475        F  0.85479793  0.32674045  0.08534673    -0.16000
F476        F  0.94466656  0.29701971  0.19402265    -0.14500
F477        F  0.89346277  0.36601280  0.23561298    -0.14500
F478        F  0.04702580  0.42847158  0.22861887    -0.15900
C479        C  0.11841225  0.66302669  0.50599495     0.14100
C480        C  0.08658356  0.66511226  0.51688600     0.01100
C481        C  0.05130835  0.63793362  0.50057640     0.16100
C482        C  0.04798338  0.60928924  0.47293163     0.25500
C483        C  0.08009160  0.60754469  0.46093179    -0.40900
C484        C  0.11531593  0.63458851  0.47856245     0.32500
C485        C  0.09103113  0.69710859  0.54308161     0.01100
F486        F  0.02013073  0.63939055  0.51111998    -0.13200
F487        F  0.14726920  0.63443909  0.46848328    -0.13700
C488        C  0.08207873  0.72238460  0.52383477     0.16100
C489        C  0.09069361  0.75524071  0.54612634     0.25500
C490        C  0.10873890  0.76355960  0.58820884    -0.40800
C491        C  0.11622852  0.73722754  0.60813102     0.32400
C492        C  0.10752650  0.70439575  0.58565594     0.14100
F493        F  0.06686512  0.71624257  0.48224574    -0.13200
F494        F  0.13253804  0.74332855  0.64907510    -0.13700
F495        F  0.08271983  0.77948954  0.52540991    -0.16000
F496        F  0.11599378  0.67999767  0.60502129    -0.14500
F497        F  0.15295011  0.68960600  0.52045329    -0.14500
F498        F  0.01341048  0.58379966  0.45743000    -0.15900
C499        C  0.04869862  0.42053711  0.52485948     0.14100
C500        C  0.06481854  0.39943105  0.51105610     0.01100
C501        C  0.07737682  0.40243919  0.46704908     0.16100
C502        C  0.07538863  0.42736646  0.43774520     0.25500
C503        C  0.06058149  0.44947637  0.45184860    -0.40900
C504        C  0.04653394  0.44549588  0.49526749     0.32500
C505        C  0.07216744  0.37679365  0.54285686     0.01100
F506        F  0.09366448  0.38280505  0.45329187    -0.13200
F507        F  0.03308377  0.46743693  0.50977304    -0.13700
C508        C  0.05570886  0.33833507  0.53595268     0.16100
C509        C  0.06857180  0.31804777  0.55965549     0.25500
C510        C  0.09836786  0.33598976  0.59058047    -0.40800
C511        C  0.11307535  0.37413976  0.59957779     0.32400
C512        C  0.10007359  0.39436983  0.57574779     0.14100
F513        F  0.02826297  0.32077617  0.50477658    -0.13200
F514        F  0.14171865  0.39243236  0.62912979    -0.13700
F515        F  0.05239552  0.28093742  0.55145356    -0.16000
F516        F  0.11665392  0.43168960  0.58245411    -0.14500
F517        F  0.03622740  0.41776738  0.56723644    -0.14500
F518        F  0.08930935  0.43106819  0.39596615    -0.15900
C519        C  0.38562242  0.09049519  0.19158620     0.14100
C520        C  0.41059205  0.07767555  0.18284260     0.01100
C521        C  0.43143945  0.08824351  0.14342303     0.16100
C522        C  0.42845662  0.11238966  0.11368528     0.25500
C523        C  0.40445096  0.12635506  0.12285650    -0.40900
C524        C  0.38221022  0.11441829  0.16141956     0.32500
C525        C  0.41609198  0.05381459  0.21464250     0.01100
F526        F  0.45535910  0.07570164  0.13428080    -0.13200
F527        F  0.35851076  0.12716957  0.17079932    -0.13700
C528        C  0.39768055  0.01526269  0.20766112     0.16100
C529        C  0.40788880  0.99318234  0.23234806     0.25500
C530        C  0.43721428  0.00947620  0.26422805    -0.40800
C531        C  0.45440091  0.04815302  0.27242269     0.32400
C532        C  0.44385428  0.07002302  0.24779821     0.14100
F533        F  0.37095183  0.99927679  0.17539058    -0.13200
F534        F  0.48293515  0.06535746  0.30236616    -0.13700
F535        F  0.38970478  0.95600787  0.22393378    -0.16000
F536        F  0.46225467  0.10743817  0.25453846    -0.14500
F537        F  0.36525341  0.08047710  0.22963544    -0.14500
F538        F  0.44901756  0.12210891  0.07574726    -0.15900
C539        C  0.64809930  0.04895192  0.25843049     0.14100
C540        C  0.64694628  0.05122559  0.21173695     0.01100
C541        C  0.61236473  0.03120321  0.18946665     0.16100
C542        C  0.57933977  0.00995616  0.21333519     0.25500
C543        C  0.58006974  0.00821681  0.26032747    -0.40900
C544        C  0.61497129  0.02764167  0.28256482     0.32500
C545        C  0.68075394  0.07734970  0.18619805     0.01100
F546        F  0.61029826  0.03373841  0.14451224    -0.13200
F547        F  0.61712368  0.02601697  0.32760819    -0.13700
C548        C  0.69404533  0.06451230  0.15136863     0.16100
C549        C  0.72173194  0.08981101  0.12238909     0.25500
C550        C  0.73617604  0.12839450  0.12746794    -0.40800
C551        C  0.72427455  0.14107146  0.16406215     0.32400
C552        C  0.69692832  0.11581408  0.19306847     0.14100
F553        F  0.67904117  0.02739924  0.14435094    -0.13200
F554        F  0.73809173  0.17803848  0.17092158    -0.13700
F555        F  0.73240814  0.07639520  0.08766218    -0.16000
F556        F  0.68435712  0.12896209  0.22614261    -0.14500
F557        F  0.68132550  0.06766090  0.28062494    -0.14500
F558        F  0.54642743  0.99247193  0.19029761    -0.15900
C559        C  0.36841436  0.92271625  0.53274113     0.14100
C560        C  0.35344890  0.94608105  0.52594138     0.01100
C561        C  0.36871320  0.97334503  0.49236697     0.16100
C562        C  0.39655520  0.97533867  0.46401310     0.25500
C563        C  0.40989122  0.95035858  0.46923392    -0.40900
C564        C  0.39664450  0.92518710  0.50519740     0.32500
C565        C  0.31896037  0.93841320  0.54999014     0.01100
F566        F  0.35539891  0.99691263  0.48573013    -0.13200
F567        F  0.40979769  0.90156013  0.51262309    -0.13700
C568        C  0.31685855  0.93517486  0.59671348     0.16100
C569        C  0.28246059  0.92183687  0.61841313     0.25500
C570        C  0.24947939  0.91189309  0.59378224    -0.40800
C571        C  0.25232402  0.91724791  0.54710038     0.32400
C572        C  0.28648548  0.92993636  0.52560544     0.14100
F573        F  0.34805451  0.94417816  0.62126879    -0.13200
F574        F  0.22179344  0.90882797  0.52150997    -0.13700
F575        F  0.28153221  0.91813357  0.66342706    -0.16000
F576        F  0.28722114  0.93174589  0.48038820    -0.14500
F577        F  0.35372338  0.89542596  0.56392532    -0.14500
F578        F  0.40842962  0.99985962  0.42969769    -0.15900
C579        C  0.58758222  0.95391686  0.52496891     0.14100
C580        C  0.60158809  0.93050937  0.51323618     0.01100
C581        C  0.59112883  0.91143974  0.47237066     0.16100
C582        C  0.56608960  0.91473323  0.44408590     0.25500
C583        C  0.55135076  0.93748988  0.45595532    -0.40900
C584        C  0.56283524  0.95774087  0.49616230     0.32500
C585        C  0.62627029  0.92455505  0.54357681     0.01100
F586        F  0.60429687  0.88859987  0.46057405    -0.13200
F587        F  0.54872817  0.97966101  0.50845241    -0.13700
C588        C  0.61138018  0.90191298  0.58127368     0.16100
C589        C  0.63320598  0.89110963  0.60587164     0.25500
C590        C  0.67019253  0.90256627  0.59274237    -0.40800
C591        C  0.68537147  0.92648795  0.55584207     0.32400
C592        C  0.66356081  0.93736016  0.53157615     0.14100
F593        F  0.57497096  0.88837248  0.59254845    -0.13200
F594        F  0.72114127  0.93884706  0.54261111    -0.13700
F595        F  0.61731648  0.86756909  0.64073322    -0.16000
F596        F  0.67838378  0.95936727  0.49525095    -0.14500
F597        F  0.59749048  0.97254221  0.56444052    -0.14500
F598        F  0.55592183  0.89539232  0.40507311    -0.15900
C599        C  0.24926343  0.70366150  0.31739273     0.14100
C600        C  0.24531136  0.72807688  0.28878249     0.01100
C601        C  0.21263722  0.71493896  0.26279456     0.16100
C602        C  0.18314585  0.67806356  0.26756197     0.25500
C603        C  0.18635606  0.65404947  0.29822204    -0.40900
C604        C  0.22033523  0.66710520  0.32196929     0.32500
C605        C  0.27526668  0.76745683  0.28896448     0.01100
F606        F  0.20888773  0.73805842  0.23402503    -0.13200
F607        F  0.22583742  0.64452945  0.34985105    -0.13700
C608        C  0.30175269  0.78152885  0.25471947     0.16100
C609        C  0.33618752  0.81425401  0.26149983     0.25500
C610        C  0.34469734  0.83289783  0.30307336    -0.40800
C611        C  0.31625111  0.82069726  0.33532587     0.32400
C612        C  0.28186694  0.78826516  0.32821709     0.14100
F613        F  0.29571649  0.76182331  0.21641431    -0.13200
F614        F  0.32237980  0.83874867  0.37494526    -0.13700
F615        F  0.36221609  0.82566491  0.22876169    -0.16000
F616        F  0.25609299  0.77525477  0.36133438    -0.14500
F617        F  0.28126341  0.71556831  0.34160475    -0.14500
F618        F  0.15118123  0.66637628  0.24344032    -0.15900
C619        C  0.69504929  0.61609825  0.14901879     0.14100
C620        C  0.66784539  0.58204363  0.16752932     0.01100
C621        C  0.66828296  0.54947888  0.15641967     0.16100
C622        C  0.69569517  0.55082553  0.12814809     0.25500
C623        C  0.72348287  0.58494910  0.10986486    -0.40900
C624        C  0.72265381  0.61760078  0.12057127     0.32500
C625        C  0.63799397  0.57973434  0.19713684     0.01100
F626        F  0.64135582  0.51594851  0.17208211    -0.13200
F627        F  0.74800721  0.65093975  0.10286817    -0.13700
C628        C  0.61296356  0.59073830  0.18158334     0.16100
C629        C  0.58229826  0.58473610  0.20734285     0.25500
C630        C  0.57561817  0.56718154  0.24945482    -0.40800
C631        C  0.60178301  0.55758086  0.26569073     0.32400
C632        C  0.63262141  0.56388980  0.23981266     0.14100
F633        F  0.61702013  0.60556129  0.14025359    -0.13200
F634        F  0.59727939  0.54135607  0.30618332    -0.13700
F635        F  0.55833356  0.59481843  0.18977550    -0.16000
F636        F  0.65704433  0.55392713  0.25615980    -0.14500
F637        F  0.69495521  0.64797322  0.15858310    -0.14500
F638        F  0.69481426  0.51842608  0.11884612    -0.15900
C639        C  0.41292024  0.39207943  0.18769976     0.14100
C640        C  0.40498092  0.36035788  0.21241988     0.01100
C641        C  0.40686508  0.36253582  0.25914584     0.16100
C642        C  0.41846310  0.39651716  0.28084055     0.25500
C643        C  0.42883091  0.42909057  0.25592927    -0.40900
C644        C  0.42459135  0.42600780  0.20908997     0.32500
C645        C  0.39919341  0.32661316  0.18884974     0.01100
F646        F  0.39829753  0.33185385  0.28370218    -0.13200
F647        F  0.43328624  0.45612524  0.18333826    -0.13700
C648        C  0.42586275  0.31540157  0.19373961     0.16100
C649        C  0.42444256  0.28752924  0.16646655     0.25500
C650        C  0.39637751  0.27042348  0.13329697    -0.40800
C651        C  0.36847649  0.28040250  0.13007295     0.32400
C652        C  0.36998215  0.30835051  0.15757822     0.14100
F653        F  0.45482603  0.33316836  0.22305894    -0.13200
F654        F  0.34093948  0.26474256  0.09867214    -0.13700
F655        F  0.45137359  0.27819790  0.17173492    -0.16000
F656        F  0.34374319  0.31863065  0.15256505    -0.14500
F657        F  0.41161121  0.39076189  0.14245468    -0.14500
F658        F  0.42006164  0.39750812  0.32606025    -0.15900
C659        C  0.61734175  0.69694279  0.58808543     0.14100
C660        C  0.62359483  0.69402173  0.54257487     0.01100
C661        C  0.65412712  0.72409570  0.52159917     0.16100
C662        C  0.67732150  0.75685915  0.54520451     0.25500
C663        C  0.67032373  0.76048496  0.59044815    -0.40900
C664        C  0.64023824  0.72992910  0.61171451     0.32500
C665        C  0.59586176  0.66178497  0.51560149     0.01100
F666        F  0.66018819  0.72267880  0.47737809    -0.13200
F667        F  0.63258456  0.73203327  0.65521062    -0.13700
C668        C  0.55838621  0.65319698  0.51460478     0.16100
C669        C  0.53254481  0.62578637  0.48593266     0.25500
C670        C  0.54368440  0.60672356  0.45628111    -0.40800
C671        C  0.58104803  0.61435493  0.45853293     0.32400
C672        C  0.60684244  0.64157496  0.48805278     0.14100
F673        F  0.54706475  0.67286535  0.53976072    -0.13200
F674        F  0.59307388  0.59649351  0.43127276    -0.13700
F675        F  0.49670673  0.61890755  0.48659185    -0.16000
F676        F  0.64276849  0.64874060  0.48912096    -0.14500
F677        F  0.58842449  0.66803345  0.60943483    -0.14500
F678        F  0.70535686  0.78576468  0.52275735    -0.15900
C679        C  0.33234819  0.44100926  0.48964284     0.14100
C680        C  0.34048752  0.41675128  0.51303307     0.01100
C681        C  0.37416035  0.41732056  0.50454140     0.16100
C682        C  0.39974398  0.44237269  0.47348251     0.25500
C683        C  0.39173121  0.46695196  0.44972330    -0.40900
C684        C  0.35740010  0.46563150  0.45823237     0.32500
C685        C  0.31227602  0.38952813  0.54409849     0.01100
F686        F  0.38228842  0.39367360  0.52647793    -0.13200
F687        F  0.34750203  0.48780401  0.43586795    -0.13700
C688        C  0.29004830  0.35221103  0.53102178     0.16100
C689        C  0.25842996  0.32785893  0.55569335     0.25500
C690        C  0.24816609  0.34053989  0.59385576    -0.40800
C691        C  0.27243318  0.37728514  0.60886238     0.32400
C692        C  0.30405269  0.40158489  0.58396540     0.14100
F693        F  0.29750989  0.34000207  0.49257793    -0.13200
F694        F  0.26439472  0.39056854  0.64596903    -0.13700
F695        F  0.23706330  0.29221383  0.54104278    -0.16000
F696        F  0.32569480  0.43747789  0.59759787    -0.14500
F697        F  0.29940910  0.44012939  0.49646559    -0.14500
F698        F  0.43231758  0.44250685  0.46694065    -0.15900
C699        C  0.48092394  0.70977593  0.25433849     0.14100
C700        C  0.50585142  0.73782763  0.28379422     0.01100
C701        C  0.52867571  0.73060402  0.31217364     0.16100
C702        C  0.52359137  0.69478008  0.31467540     0.25500
C703        C  0.49609806  0.66583923  0.28822868    -0.40900
C704        C  0.47630759  0.67407698  0.25628118     0.32500
C705        C  0.50260521  0.77136626  0.29099816     0.01100
F706        F  0.55389231  0.75757963  0.33989313    -0.13200
F707        F  0.44951935  0.64666118  0.23038126    -0.13700
C708        C  0.49178353  0.77718214  0.33310544     0.16100
C709        C  0.48379373  0.80558197  0.33979354     0.25500
C710        C  0.48604015  0.82892200  0.30429778    -0.40800
C711        C  0.49819470  0.82393419  0.26236949     0.32400
C712        C  0.50638211  0.79533946  0.25582452     0.14100
F713        F  0.48711241  0.75408623  0.36758859    -0.13200
F714        F  0.50092640  0.84577153  0.22731678    -0.13700
F715        F  0.47322302  0.80962198  0.38125411    -0.16000
F716        F  0.51745931  0.79068192  0.21500180    -0.14500
F717        F  0.45819169  0.71577429  0.22698282    -0.14500
F718        F  0.54400053  0.68782484  0.34476437    -0.15900
C719        C  0.22461440  0.52222321  0.23334972     0.14100
C720        C  0.23777689  0.50624763  0.26451023     0.01100
C721        C  0.21628692  0.48857009  0.30228237     0.16100
C722        C  0.18387329  0.48998918  0.31102265     0.25500
C723        C  0.17253681  0.50919594  0.28205663    -0.40900
C724        C  0.19196363  0.52340724  0.24180562     0.32500
C725        C  0.27696640  0.51476459  0.26306604     0.01100
F726        F  0.22880042  0.47333881  0.33305590    -0.13200
F727        F  0.18175784  0.54188892  0.21287929    -0.13700
C728        C  0.30561453  0.55139656  0.27204462     0.16100
C729        C  0.34220514  0.55922409  0.27947698     0.25500
C730        C  0.35088271  0.53068321  0.27717412    -0.40800
C731        C  0.32277824  0.49443265  0.26523439     0.32400
C732        C  0.28576430  0.48637434  0.25895368     0.14100
F733        F  0.29764448  0.57919096  0.27648937    -0.13200
F734        F  0.33067545  0.46649731  0.26255239    -0.13700
F735        F  0.36910028  0.59460360  0.29004033    -0.16000
F736        F  0.25830559  0.45077436  0.25062892    -0.14500
F737        F  0.24514437  0.53944121  0.19664715    -0.14500
F738        F  0.16513373  0.47492871  0.34947641    -0.15900
loop_ 
_geom_bond_atom_site_label_1 
_geom_bond_atom_site_label_2 
_geom_bond_distance 
_geom_bond_site_symmetry_2 
_ccdc_geom_bond_type 
Fe1          O17   2.052       .  S
Fe1           O7   2.049       .  S
Fe1          O14   2.049       .  S
Fe1           O6   2.067       .  S
Fe1          O12   1.944       .  S
Fe2           O5   2.102       .  S
Fe2           O9   2.080       .  S
Fe2          O13   2.103       .  S
Fe2          O18   2.069       .  S
Fe2          O12   1.959       .  S
Fe3          O21   2.047       .  S
Fe3           O8   2.062       .  S
Fe3          O15   2.089       .  S
Fe3           O4   2.054       .  S
Fe3          O12   1.954       .  S
O4           C11   1.264       .  A
O5           C19   1.277       .  A
O6           C11   1.268       .  A
O7           C10   1.268       .  A
O8           C20   1.271       .  A
O9           C22   1.271       .  A
C10          O15   1.273       .  A
C10         C703   1.475       .  S
C11         C730   1.468       .  S
O13          C16   1.278       .  A
O14          C16   1.270       .  A
C16         C683   1.496       .  S
O17          C22   1.265       .  A
O18          C20   1.270       .  A
C19          O21   1.268       .  A
C19         C630   1.496       .  S
C20         C643   1.489       .  S
C22         C670   1.491       .  S
Fe23         O39   2.045       .  S
Fe23         O29   2.054       .  S
Fe23         O36   2.043       .  S
Fe23         O28   2.054       .  S
Fe23         O34   1.952       .  S
Fe24         O27   2.082   1_565  S
Fe24         O31   2.079       .  S
Fe24         O35   2.092       .  S
Fe24         O40   2.078       .  S
Fe24         O34   1.969       .  S
Fe25         O43   2.061       .  S
Fe25         O30   2.057       .  S
Fe25         O37   2.075       .  S
Fe25         O26   2.075       .  S
Fe25         O34   1.961       .  S
O26          C33   1.270       .  A
O27          C41   1.275   1_545  A
O28          C33   1.266       .  A
O29          C32   1.268       .  A
O30          C42   1.267       .  A
O31          C44   1.269       .  A
C32          O37   1.270       .  A
C32         C610   1.485       .  S
C33         C710   1.487       .  S
O35          C38   1.275       .  A
O36          C38   1.268       .  A
C38         C583   1.471       .  S
O39          C44   1.264       .  A
O40          C42   1.271       .  A
C41          O43   1.272       .  A
C41         C530   1.490   1_565  S
C42         C543   1.489   1_565  S
C44         C563   1.483       .  S
Fe45         O61   2.039       .  S
Fe45         O51   2.043       .  S
Fe45         O58   2.046       .  S
Fe45         O50   2.048       .  S
Fe45         O56   1.964       .  S
Fe46         O49   2.068       .  S
Fe46         O53   2.074       .  S
Fe46         O57   2.072       .  S
Fe46         O62   2.067       .  S
Fe46         O56   1.986       .  S
Fe47         O65   2.057       .  S
Fe47         O52   2.062       .  S
Fe47         O59   2.070       .  S
Fe47         O48   2.071       .  S
Fe47         O56   1.979       .  S
O48          C55   1.269       .  A
O49          C63   1.272       .  A
O50          C55   1.267       .  A
O51          C54   1.264       .  A
O52          C64   1.267       .  A
O53          C66   1.266       .  A
C54          O59   1.268       .  A
C54         C723   1.477       .  S
C55         C603   1.482       .  S
O57          C60   1.271       .  A
O58          C60   1.267       .  A
C60         C483   1.486       .  S
O61          C66   1.261       .  A
O62          C64   1.267       .  A
C63          O65   1.271       .  A
C63         C463   1.474   1_455  S
C64         C443   1.488   1_455  S
C66         C503   1.465       .  S
Fe67         O83   2.049       .  S
Fe67         O73   2.063       .  S
Fe67         O80   2.058       .  S
Fe67         O72   2.058       .  S
Fe67         O78   1.952       .  S
Fe68         O71   2.070   1_554  S
Fe68         O75   2.085       .  S
Fe68         O79   2.065       .  S
Fe68         O84   2.080   1_554  S
Fe68         O78   1.965       .  S
Fe69         O87   2.051       .  S
Fe69         O74   2.060       .  S
Fe69         O81   2.071       .  S
Fe69         O70   2.069       .  S
Fe69         O78   1.956   1_556  S
O70          C77   1.268       .  A
O71          C85   1.269       .  A
O72          C77   1.269   1_554  A
O73          C76   1.268   1_554  A
O74          C86   1.272       .  A
O75          C88   1.273       .  A
C76          O81   1.269       .  A
C76         C430   1.470       .  S
C77         C410   1.484       .  S
O79          C82   1.268       .  A
O80          C82   1.266       .  A
C82         C650   1.484       .  S
O83          C88   1.269       .  A
O84          C86   1.274       .  A
C85          O87   1.265       .  A
C85         C383   1.489       .  S
C86         C370   1.491       .  S
C88         C523   1.475       .  S
Fe89        O105   2.040       .  S
Fe89         O95   2.067   1_554  S
Fe89        O102   2.061       .  S
Fe89         O94   2.046       .  S
Fe89        O100   1.947   1_554  S
Fe90         O93   2.070   1_554  S
Fe90         O97   2.094       .  S
Fe90        O101   2.076       .  S
Fe90        O106   2.079   1_554  S
Fe90        O100   1.958   1_554  S
Fe91        O109   2.079       .  S
Fe91         O96   2.045       .  S
Fe91        O103   2.056       .  S
Fe91         O92   2.092       .  S
Fe91        O100   1.958       .  S
O92          C99   1.274       .  A
O93         C107   1.271       .  A
O94          C99   1.266   1_554  A
O95          C98   1.269       .  A
O96         C108   1.267       .  A
O97         C110   1.276       .  A
C98         O103   1.265       .  A
C98         C343   1.471       .  S
C99         C423   1.488       .  S
O101        C104   1.269       .  A
O102        C104   1.266       .  A
C104        C550   1.487       .  S
O105        C110   1.268       .  A
O106        C108   1.274       .  A
C107        O109   1.271       .  A
C107        C303   1.498       .  S
C108        C330   1.481       .  S
C110        C470   1.487       .  S
Fe111       O127   2.050       .  S
Fe111       O117   2.060   1_554  S
Fe111       O124   2.049       .  S
Fe111       O116   2.049   1_554  S
Fe111       O122   1.948   1_554  S
Fe112       O115   2.069   1_554  S
Fe112       O119   2.096       .  S
Fe112       O123   2.083       .  S
Fe112       O128   2.085   1_554  S
Fe112       O122   1.960   1_554  S
Fe113       O131   2.063       .  S
Fe113       O118   2.055       .  S
Fe113       O125   2.064       .  S
Fe113       O114   2.077       .  S
Fe113       O122   1.956       .  S
O114        C121   1.271       .  A
O115        C129   1.270       .  A
O116        C121   1.267       .  A
O117        C120   1.267       .  A
O118        C130   1.270       .  A
O119        C132   1.277       .  A
C120        O125   1.267       .  A
C120        C403   1.465       .  S
C121        C350   1.478       .  S
O123        C126   1.270       .  A
O124        C126   1.264       .  A
C126        C450   1.486       .  S
O127        C132   1.270       .  A
O128        C130   1.276       .  A
C129        O131   1.269       .  A
C129        C263   1.491       .  S
C130        C283   1.476       .  S
C132        C623   1.493       .  S
Fe133       O149   2.074       .  S
Fe133       O139   2.037       .  S
Fe133       O146   2.040       .  S
Fe133       O138   2.071       .  S
Fe133       O144   1.946       .  S
Fe134       O137   2.088       .  S
Fe134       O141   2.065       .  S
Fe134       O145   2.094       .  S
Fe134       O150   2.063       .  S
Fe134       O144   1.952       .  S
Fe135       O153   2.043       .  S
Fe135       O140   2.066       .  S
Fe135       O147   2.085       .  S
Fe135       O136   2.055       .  S
Fe135       O144   1.950       .  S
O136        C143   1.263       .  A
O137        C151   1.274       .  A
O138        C143   1.267       .  A
O139        C142   1.268       .  A
O140        C152   1.271       .  A
O141        C154   1.268       .  A
C142        O147   1.275       .  A
C142        C243   1.482       .  S
C143        C223   1.474       .  S
O145        C148   1.277       .  A
O146        C148   1.267       .  A
C148        C323   1.469       .  S
O149        C154   1.268       .  A
O150        C152   1.271       .  A
C151        O153   1.266       .  A
C151        C663   1.486       .  S
C152        C590   1.481       .  S
C154        C270   1.492       .  S
Fe155       O171   2.042       .  S
Fe155       O161   2.066       .  S
Fe155       O168   2.057       .  S
Fe155       O160   2.048       .  S
Fe155       O166   1.944       .  S
Fe156       O159   2.073       .  S
Fe156       O163   2.085       .  S
Fe156       O167   2.075       .  S
Fe156       O172   2.075       .  S
Fe156       O166   1.953       .  S
Fe157       O175   2.061       .  S
Fe157       O162   2.048       .  S
Fe157       O169   2.059       .  S
Fe157       O158   2.073       .  S
Fe157       O166   1.955       .  S
O158        C165   1.269       .  A
O159        C173   1.272       .  A
O160        C165   1.267       .  A
O161        C164   1.270       .  A
O162        C174   1.267       .  A
O163        C176   1.275       .  A
C164        O169   1.267       .  A
C164        C210   1.479       .  S
C165        C250   1.464       .  S
O167        C170   1.269       .  A
O168        C170   1.264       .  A
C170        C290   1.469       .  S
O171        C176   1.269       .  A
O172        C174   1.273       .  A
C173        O175   1.268       .  A
C173        C570   1.491       .  S
C174        C490   1.484       .  S
C176        C390   1.470       .  S
Fe177       O193   2.051       .  S
Fe177       O183   2.059       .  S
Fe177       O190   2.051       .  S
Fe177       O182   2.063       .  S
Fe177       O188   1.964       .  S
Fe178       O181   2.076       .  S
Fe178       O185   2.084       .  S
Fe178       O189   2.084       .  S
Fe178       O194   2.080       .  S
Fe178       O188   1.985       .  S
Fe179       O197   2.046       .  S
Fe179       O184   2.056       .  S
Fe179       O191   2.065       .  S
Fe179       O180   2.061       .  S
Fe179       O188   1.982       .  S
O180        C187   1.266       .  A
O181        C195   1.271       .  A
O182        C187   1.268       .  A
O183        C186   1.268       .  A
O184        C196   1.267       .  A
O185        C198   1.270       .  A
C186        O191   1.267       .  A
C186        C230   1.474       .  S
C187        C203   1.471       .  S
O189        C192   1.273       .  A
O190        C192   1.268       .  A
C192        C363   1.493       .  S
O193        C198   1.265       .  A
O194        C196   1.271       .  A
C195        O197   1.268       .  A
C195        C510   1.480       .  S
C196        C690   1.491       .  S
C198        C310   1.491       .  S
C199        C200   1.403       .  A
C199        C204   1.401       .  A
C199        F217   1.358       .  S
C200        C205   1.471       .  S
C200        C201   1.403       .  A
C201        C202   1.396       .  A
C201        F206   1.358       .  S
C202        C203   1.404       .  A
C202        F218   1.358       .  S
C203        C204   1.407       .  A
C204        F207   1.358       .  S
C205        C208   1.403       .  A
C205        C212   1.399       .  A
C208        C209   1.404       .  A
C208        F213   1.357       .  S
C209        C210   1.411   1_545  A
C209        F215   1.358       .  S
C210        C211   1.409       .  A
C211        C212   1.389   1_565  A
C211        F214   1.358       .  S
C212        F216   1.358       .  S
C219        C220   1.404       .  A
C219        C224   1.403       .  A
C219        F237   1.357       .  S
C220        C225   1.474       .  S
C220        C221   1.404       .  A
C221        C222   1.392   1_545  A
C221        F226   1.359       .  S
C222        C223   1.405       .  A
C222        F238   1.358       .  S
C223        C224   1.409   1_565  A
C224        F227   1.358       .  S
C225        C228   1.404       .  A
C225        C232   1.404       .  A
C228        C229   1.398       .  A
C228        F233   1.358       .  S
C229        C230   1.406   1_655  A
C229        F235   1.358       .  S
C230        C231   1.406       .  A
C231        C232   1.398   1_455  A
C231        F234   1.358       .  S
C232        F236   1.358       .  S
C239        C240   1.404       .  A
C239        C244   1.399       .  A
C239        F257   1.358       .  S
C240        C245   1.475       .  S
C240        C241   1.404       .  A
C241        C242   1.389       .  A
C241        F246   1.359       .  S
C242        C243   1.411       .  A
C242        F258   1.358       .  S
C243        C244   1.412       .  A
C244        F247   1.358       .  S
C245        C248   1.407       .  A
C245        C252   1.406       .  A
C248        C249   1.395   1_655  A
C248        F253   1.358       .  S
C249        C250   1.404       .  A
C249        F255   1.358       .  S
C250        C251   1.403   1_455  A
C251        C252   1.395       .  A
C251        F254   1.358       .  S
C252        F256   1.358       .  S
C259        C260   1.405       .  A
C259        C264   1.403       .  A
C259        F277   1.358       .  S
C260        C265   1.483       .  S
C260        C261   1.403       .  A
C261        C262   1.395       .  A
C261        F266   1.358       .  S
C262        C263   1.413       .  A
C262        F278   1.358       .  S
C263        C264   1.413       .  A
C264        F267   1.358       .  S
C265        C268   1.403       .  A
C265        C272   1.404       .  A
C268        C269   1.400       .  A
C268        F273   1.358       .  S
C269        C270   1.415       .  A
C269        F275   1.358       .  S
C270        C271   1.411       .  A
C271        C272   1.399       .  A
C271        F274   1.357       .  S
C272        F276   1.358       .  S
C279        C280   1.406       .  A
C279        C284   1.399       .  A
C279        F297   1.358       .  S
C280        C285   1.483   1_655  S
C280        C281   1.407       .  A
C281        C282   1.398       .  A
C281        F286   1.358       .  S
C282        C283   1.405       .  A
C282        F298   1.358       .  S
C283        C284   1.407       .  A
C284        F287   1.358       .  S
C285        C288   1.408       .  A
C285        C292   1.406       .  A
C288        C289   1.399       .  A
C288        F293   1.358   1_455  S
C289        C290   1.403       .  A
C289        F295   1.358       .  S
C290        C291   1.405       .  A
C291        C292   1.398       .  A
C291        F294   1.358       .  S
C292        F296   1.358       .  S
C299        C300   1.405       .  A
C299        C304   1.401       .  A
C299        F317   1.358       .  S
C300        C305   1.488   1_655  S
C300        C301   1.404       .  A
C301        C302   1.402       .  A
C301        F306   1.358       .  S
C302        C303   1.416       .  A
C302        F318   1.357       .  S
C303        C304   1.413       .  A
C304        F307   1.358       .  S
C305        C308   1.404       .  A
C305        C312   1.408       .  A
C308        C309   1.396       .  A
C308        F313   1.358   1_455  S
C309        C310   1.412       .  A
C309        F315   1.358       .  S
C310        C311   1.411       .  A
C311        C312   1.406       .  A
C311        F314   1.357       .  S
C312        F316   1.358       .  S
C319        C320   1.402       .  A
C319        C324   1.399       .  A
C319        F337   1.357       .  S
C320        C325   1.468   1_565  S
C320        C321   1.402   1_565  A
C321        C322   1.394   1_545  A
C321        F326   1.359       .  S
C322        C323   1.406       .  A
C322        F338   1.358       .  S
C323        C324   1.406       .  A
C324        F327   1.358       .  S
C325        C328   1.401       .  A
C325        C332   1.400       .  A
C328        C329   1.396       .  A
C328        F333   1.358       .  S
C329        C330   1.410       .  A
C329        F335   1.358       .  S
C330        C331   1.413       .  A
C331        C332   1.396       .  A
C331        F334   1.358       .  S
C332        F336   1.358       .  S
C339        C340   1.402       .  A
C339        C344   1.401       .  A
C339        F357   1.357       .  S
C340        C345   1.469       .  S
C340        C341   1.402       .  A
C341        C342   1.392       .  A
C341        F346   1.359       .  S
C342        C343   1.405       .  A
C342        F358   1.359       .  S
C343        C344   1.408       .  A
C344        F347   1.358       .  S
C345        C348   1.400       .  A
C345        C352   1.402       .  A
C348        C349   1.397       .  A
C348        F353   1.358       .  S
C349        C350   1.411       .  A
C349        F355   1.358       .  S
C350        C351   1.409       .  A
C351        C352   1.396       .  A
C351        F354   1.358   1_556  S
C352        F356   1.358       .  S
C359        C360   1.403       .  A
C359        C364   1.394       .  A
C359        F377   1.359       .  S
C360        C365   1.483       .  S
C360        C361   1.405       .  A
C361        C362   1.404       .  A
C361        F366   1.358       .  S
C362        C363   1.413       .  A
C362        F378   1.358       .  S
C363        C364   1.414       .  A
C364        F367   1.358       .  S
C365        C368   1.404       .  A
C365        C372   1.405       .  A
C368        C369   1.399       .  A
C368        F373   1.358       .  S
C369        C370   1.413       .  A
C369        F375   1.358       .  S
C370        C371   1.412       .  A
C371        C372   1.398       .  A
C371        F374   1.358       .  S
C372        F376   1.358       .  S
C379        C380   1.408       .  A
C379        C384   1.402       .  A
C379        F397   1.358       .  S
C380        C385   1.485   1_545  S
C380        C381   1.404       .  A
C381        C382   1.392       .  A
C381        F386   1.358       .  S
C382        C383   1.413       .  A
C382        F398   1.358       .  S
C383        C384   1.411       .  A
C384        F387   1.358       .  S
C385        C388   1.408       .  A
C385        C392   1.410       .  A
C388        C389   1.396       .  A
C388        F393   1.358       .  S
C389        C390   1.405       .  A
C389        F395   1.358       .  S
C390        C391   1.402       .  A
C391        C392   1.398       .  A
C391        F394   1.358       .  S
C392        F396   1.358       .  S
C399        C400   1.404       .  A
C399        C404   1.392       .  A
C399        F417   1.359       .  S
C400        C405   1.473       .  S
C400        C401   1.405       .  A
C401        C402   1.401       .  A
C401        F406   1.357       .  S
C402        C403   1.404       .  A
C402        F418   1.358       .  S
C403        C404   1.404       .  A
C404        F407   1.359       .  S
C405        C408   1.403       .  A
C405        C412   1.401       .  A
C408        C409   1.398       .  A
C408        F413   1.358   1_556  S
C409        C410   1.410       .  A
C409        F415   1.358   1_556  S
C410        C411   1.413       .  A
C411        C412   1.396       .  A
C411        F414   1.358       .  S
C412        F416   1.358       .  S
C419        C420   1.402       .  A
C419        C424   1.399       .  A
C419        F437   1.358   1_556  S
C420        C425   1.476       .  S
C420        C421   1.403       .  A
C421        C422   1.399       .  A
C421        F426   1.358       .  S
C422        C423   1.411       .  A
C422        F438   1.357       .  S
C423        C424   1.413       .  A
C424        F427   1.358   1_556  S
C425        C428   1.403       .  A
C425        C432   1.406       .  A
C428        C429   1.392       .  A
C428        F433   1.358       .  S
C429        C430   1.403       .  A
C429        F435   1.358       .  S
C430        C431   1.407       .  A
C431        C432   1.405       .  A
C431        F434   1.358       .  S
C432        F436   1.357       .  S
C439        C440   1.403       .  A
C439        C444   1.400   1_655  A
C439        F457   1.358   1_655  S
C440        C445   1.482       .  S
C440        C441   1.406       .  A
C441        C442   1.400       .  A
C441        F446   1.358       .  S
C442        C443   1.411       .  A
C442        F458   1.358       .  S
C443        C444   1.411   1_655  A
C444        F447   1.358       .  S
C445        C448   1.401       .  A
C445        C452   1.407       .  A
C448        C449   1.392       .  A
C448        F453   1.359       .  S
C449        C450   1.412       .  A
C449        F455   1.358       .  S
C450        C451   1.409       .  A
C451        C452   1.407       .  A
C451        F454   1.357       .  S
C452        F456   1.357       .  S
C459        C460   1.407       .  A
C459        C464   1.396       .  A
C459        F477   1.358       .  S
C460        C465   1.480       .  S
C460        C461   1.405       .  A
C461        C462   1.398   1_655  A
C461        F466   1.358   1_655  S
C462        C463   1.408   1_455  A
C462        F478   1.358       .  S
C463        C464   1.405       .  A
C464        F467   1.358       .  S
C465        C468   1.402       .  A
C465        C472   1.406       .  A
C468        C469   1.392       .  A
C468        F473   1.359       .  S
C469        C470   1.412       .  A
C469        F475   1.358       .  S
C470        C471   1.412       .  A
C471        C472   1.403       .  A
C471        F474   1.358       .  S
C472        F476   1.358       .  S
C479        C480   1.400       .  A
C479        C484   1.392       .  A
C479        F497   1.359       .  S
C480        C485   1.474       .  S
C480        C481   1.403       .  A
C481        C482   1.399       .  A
C481        F486   1.358       .  S
C482        C483   1.412       .  A
C482        F498   1.358       .  S
C483        C484   1.414       .  A
C484        F487   1.358       .  S
C485        C488   1.401       .  A
C485        C492   1.403       .  A
C488        C489   1.395       .  A
C488        F493   1.358       .  S
C489        C490   1.413       .  A
C489        F495   1.358       .  S
C490        C491   1.411       .  A
C491        C492   1.396       .  A
C491        F494   1.358       .  S
C492        F496   1.358       .  S
C499        C500   1.406       .  A
C499        C504   1.402       .  A
C499        F517   1.358       .  S
C500        C505   1.474       .  S
C500        C501   1.404       .  A
C501        C502   1.393       .  A
C501        F506   1.358       .  S
C502        C503   1.402       .  A
C502        F518   1.358       .  S
C503        C504   1.405       .  A
C504        F507   1.358       .  S
C505        C508   1.401       .  A
C505        C512   1.404       .  A
C508        C509   1.395       .  A
C508        F513   1.358       .  S
C509        C510   1.411       .  A
C509        F515   1.359       .  S
C510        C511   1.409       .  A
C511        C512   1.399       .  A
C511        F514   1.357       .  S
C512        F516   1.358       .  S
C519        C520   1.404       .  A
C519        C524   1.403       .  A
C519        F537   1.357       .  S
C520        C525   1.474       .  S
C520        C521   1.401       .  A
C521        C522   1.394       .  A
C521        F526   1.358       .  S
C522        C523   1.406       .  A
C522        F538   1.359       .  S
C523        C524   1.408       .  A
C524        F527   1.358       .  S
C525        C528   1.400       .  A
C525        C532   1.401       .  A
C528        C529   1.399   1_545  A
C528        F533   1.358   1_545  S
C529        C530   1.413   1_565  A
C529        F535   1.358       .  S
C530        C531   1.413       .  A
C531        C532   1.399       .  A
C531        F534   1.358       .  S
C532        F536   1.358       .  S
C539        C540   1.406       .  A
C539        C544   1.404       .  A
C539        F557   1.357       .  S
C540        C545   1.483       .  S
C540        C541   1.403       .  A
C541        C542   1.396       .  A
C541        F546   1.358       .  S
C542        C543   1.413       .  A
C542        F558   1.358   1_545  S
C543        C544   1.410       .  A
C544        F547   1.358       .  S
C545        C548   1.407       .  A
C545        C552   1.403       .  A
C548        C549   1.403       .  A
C548        F553   1.358       .  S
C549        C550   1.409       .  A
C549        F555   1.358       .  S
C550        C551   1.411       .  A
C551        C552   1.397       .  A
C551        F554   1.358       .  S
C552        F556   1.358       .  S
C559        C560   1.404       .  A
C559        C564   1.394       .  A
C559        F577   1.358       .  S
C560        C565   1.485       .  S
C560        C561   1.409       .  A
C561        C562   1.403       .  A
C561        F566   1.358       .  S
C562        C563   1.408       .  A
C562        F578   1.358       .  S
C563        C564   1.411       .  A
C564        F567   1.359       .  S
C565        C568   1.407       .  A
C565        C572   1.403       .  A
C568        C569   1.402       .  A
C568        F573   1.358       .  S
C569        C570   1.411       .  A
C569        F575   1.358       .  S
C570        C571   1.414       .  A
C571        C572   1.394       .  A
C571        F574   1.358       .  S
C572        F576   1.358       .  S
C579        C580   1.405       .  A
C579        C584   1.403       .  A
C579        F597   1.358       .  S
C580        C585   1.474       .  S
C580        C581   1.402       .  A
C581        C582   1.393       .  A
C581        F586   1.358       .  S
C582        C583   1.405       .  A
C582        F598   1.358       .  S
C583        C584   1.407       .  A
C584        F587   1.358       .  S
C585        C588   1.403       .  A
C585        C592   1.401       .  A
C588        C589   1.399       .  A
C588        F593   1.358       .  S
C589        C590   1.410       .  A
C589        F595   1.358       .  S
C590        C591   1.410       .  A
C591        C592   1.396       .  A
C591        F594   1.358       .  S
C592        F596   1.358       .  S
C599        C600   1.400       .  A
C599        C604   1.388       .  A
C599        F617   1.359       .  S
C600        C605   1.473       .  S
C600        C601   1.403       .  A
C601        C602   1.405       .  A
C601        F606   1.357       .  S
C602        C603   1.412       .  A
C602        F618   1.357       .  S
C603        C604   1.411       .  A
C604        F607   1.359       .  S
C605        C608   1.401       .  A
C605        C612   1.402       .  A
C608        C609   1.400       .  A
C608        F613   1.358       .  S
C609        C610   1.414       .  A
C609        F615   1.358       .  S
C610        C611   1.409       .  A
C611        C612   1.395       .  A
C611        F614   1.358       .  S
C612        F616   1.358       .  S
C619        C620   1.407       .  A
C619        C624   1.404       .  A
C619        F637   1.358       .  S
C620        C625   1.487       .  S
C620        C621   1.403       .  A
C621        C622   1.397       .  A
C621        F626   1.358       .  S
C622        C623   1.413       .  A
C622        F638   1.358       .  S
C623        C624   1.412       .  A
C624        F627   1.358       .  S
C625        C628   1.402       .  A
C625        C632   1.407       .  A
C628        C629   1.398       .  A
C628        F633   1.358       .  S
C629        C630   1.417       .  A
C629        F635   1.358       .  S
C630        C631   1.411       .  A
C631        C632   1.403       .  A
C631        F634   1.357       .  S
C632        F636   1.358       .  S
C639        C640   1.402       .  A
C639        C644   1.394       .  A
C639        F657   1.358       .  S
C640        C645   1.478       .  S
C640        C641   1.404       .  A
C641        C642   1.401       .  A
C641        F646   1.358       .  S
C642        C643   1.413       .  A
C642        F658   1.357       .  S
C643        C644   1.413       .  A
C644        F647   1.358       .  S
C645        C648   1.402       .  A
C645        C652   1.405       .  A
C648        C649   1.395       .  A
C648        F653   1.358       .  S
C649        C650   1.412       .  A
C649        F655   1.358       .  S
C650        C651   1.410       .  A
C651        C652   1.400       .  A
C651        F654   1.358       .  S
C652        F656   1.358       .  S
C659        C660   1.408       .  A
C659        C664   1.400       .  A
C659        F677   1.358       .  S
C660        C665   1.484       .  S
C660        C661   1.403       .  A
C661        C662   1.396       .  A
C661        F666   1.358       .  S
C662        C663   1.413       .  A
C662        F678   1.358       .  S
C663        C664   1.408       .  A
C664        F667   1.358       .  S
C665        C668   1.402       .  A
C665        C672   1.408       .  A
C668        C669   1.392       .  A
C668        F673   1.359       .  S
C669        C670   1.415       .  A
C669        F675   1.358       .  S
C670        C671   1.411       .  A
C671        C672   1.404       .  A
C671        F674   1.357       .  S
C672        F676   1.358       .  S
C679        C680   1.401       .  A
C679        C684   1.397       .  A
C679        F697   1.358       .  S
C680        C685   1.480       .  S
C680        C681   1.403       .  A
C681        C682   1.404       .  A
C681        F686   1.358       .  S
C682        C683   1.414       .  A
C682        F698   1.357       .  S
C683        C684   1.415       .  A
C684        F687   1.358       .  S
C685        C688   1.401       .  A
C685        C692   1.405       .  A
C688        C689   1.399       .  A
C688        F693   1.358       .  S
C689        C690   1.414       .  A
C689        F695   1.358       .  S
C690        C691   1.411       .  A
C691        C692   1.402       .  A
C691        F694   1.358       .  S
C692        F696   1.358       .  S
C699        C700   1.406       .  A
C699        C704   1.399       .  A
C699        F717   1.358       .  S
C700        C705   1.482       .  S
C700        C701   1.407       .  A
C701        C702   1.398       .  A
C701        F706   1.358       .  S
C702        C703   1.406       .  A
C702        F718   1.358       .  S
C703        C704   1.406       .  A
C704        F707   1.358       .  S
C705        C708   1.403       .  A
C705        C712   1.406       .  A
C708        C709   1.392       .  A
C708        F713   1.359       .  S
C709        C710   1.413       .  A
C709        F715   1.359       .  S
C710        C711   1.410       .  A
C711        C712   1.404       .  A
C711        F714   1.357       .  S
C712        F716   1.357       .  S
C719        C720   1.403       .  A
C719        C724   1.398       .  A
C719        F737   1.358       .  S
C720        C725   1.472       .  S
C720        C721   1.403       .  A
C721        C722   1.395       .  A
C721        F726   1.358       .  S
C722        C723   1.409       .  A
C722        F738   1.358       .  S
C723        C724   1.409       .  A
C724        F727   1.358       .  S
C725        C728   1.404       .  A
C725        C732   1.405       .  A
C728        C729   1.392       .  A
C728        F733   1.358       .  S
C729        C730   1.404       .  A
C729        F735   1.359       .  S
C730        C731   1.406       .  A
C731        C732   1.401       .  A
C731        F734   1.358       .  S
C732        F736   1.358       .  S
