geometry optimzed in LAMMPS
_audit_creation_date              2020-11-30 
_audit_creation_method            'lammps2cif' 
_symmetry_space_group_name_H-M    'P1' 
_symmetry_Int_Tables_number       1 
_symmetry_cell_setting            triclinic 
loop_ 
_symmetry_equiv_pos_as_xyz 
  x,y,z 
_cell_length_a                    64.7479344 
_cell_length_b                    64.53914077598363 
_cell_length_c                    37.174727088859655 
_cell_angle_alpha                 89.99717888537883 
_cell_angle_beta                  90.17662684051597 
_cell_angle_gamma                 119.30584583122815 
loop_ 
_atom_site_label 
_atom_site_type_symbol 
_atom_site_fract_x 
_atom_site_fract_y 
_atom_site_fract_z 
_atom_site_charge 
O1          O  0.14837126  0.50550634  0.16873425    -0.85100
O2          O  0.14954937  0.50838825  0.24221472    -0.82100
C3          C  0.12938911  0.50660825  0.24573025     0.98400
O4          O  0.11124618  0.48702174  0.23916120    -0.82100
O5          O  0.08235988  0.44149071  0.21258207    -0.84800
C6          C  0.07852532  0.44073359  0.17890743     1.02900
O7          O  0.09508843  0.44637620  0.15690058    -0.77600
O8          O  0.13866214  0.47560221  0.13123701    -0.77700
C9          C  0.14258240  0.49672296  0.13760641     1.02900
O10         O  0.17689504  0.48352381  0.17035612    -0.85100
O11         O  0.17059193  0.47869412  0.24300773    -0.82100
C12         C  0.16042001  0.47168878  0.27288060     0.98400
O13         O  0.14005381  0.46971744  0.27811138    -0.82200
O14         O  0.11288598  0.42720266  0.24846825    -0.84800
C15         C  0.10909060  0.41131210  0.22583748     1.02900
O16         O  0.10983326  0.41551896  0.19226887    -0.77600
O17         O  0.15494426  0.44520976  0.16905943    -0.77700
C18         C  0.17497184  0.46330695  0.16628235     1.02800
Cr19       Cr  0.15931173  0.49204015  0.20598396     1.93700
Cr20       Cr  0.11294278  0.45711549  0.24162366     1.93200
Cr21       Cr  0.12526923  0.44702480  0.16528081     1.39100
O22         O  0.13211294  0.46513139  0.20412041    -1.22800
O23         O  0.97856872  0.16059896  0.41086158    -0.85100
O24         O  0.97983038  0.15767415  0.33667402    -0.82100
C25         C  0.96150266  0.15915325  0.33002309     0.98400
O26         O  0.96190285  0.17849128  0.33630694    -0.82100
O27         O  0.97491565  0.22328778  0.36370819    -0.84800
C28         C  0.97085102  0.22380275  0.39707584     1.02900
O29         O  0.98168328  0.21874255  0.42046395    -0.77600
O30         O  0.99734306  0.19048714  0.44872967    -0.77700
C31         C  0.98103322  0.16929103  0.44203242     1.02900
O32         O  0.02856933  0.18311766  0.41365915    -0.85100
O33         O  0.02947718  0.18777571  0.34051612    -0.82100
C34         C  0.02735347  0.19478070  0.30979878     0.98400
O35         O  0.00959011  0.19766923  0.30254646    -0.82200
O36         O  0.02082831  0.24008575  0.33187440    -0.84800
C37         C  0.03054395  0.25576378  0.35560294     1.02900
O38         O  0.02700726  0.25073693  0.38886750    -0.77600
O39         O  0.04394523  0.22148159  0.41484044    -0.77700
C40         C  0.04616354  0.20331871  0.41918629     1.02800
Cr41       Cr  0.00393860  0.17435917  0.37542638     1.93700
Cr42       Cr  0.99238111  0.20906618  0.33669540     1.93200
Cr43       Cr  0.01198178  0.21905487  0.41510487     1.39100
O44         O  0.00275233  0.20118261  0.37575078    -1.22800
O45         O  0.82258796  0.30515689  0.00444199    -0.85100
O46         O  0.81972288  0.30528312  0.07778646    -0.82100
C47         C  0.82289812  0.28784796  0.08408819     0.98400
O48         O  0.84323704  0.29010287  0.08068200    -0.82100
O49         O  0.88842961  0.30612828  0.05390451    -0.84800
C50         C  0.88686506  0.29955683  0.02128171     1.02900
O51         O  0.87948052  0.30818676  0.99743827    -0.77600
O52         O  0.85156570  0.32454645  0.46667536    -0.77700
C53         C  0.83040121  0.30836850  0.47313979     1.02900
O54         O  0.84436001  0.35537539  0.00322393    -0.85100
O55         O  0.84743447  0.35586360  0.07663979    -0.82100
C56         C  0.85359518  0.35339295  0.10779942     0.98400
O57         O  0.85864432  0.33695400  0.11422197    -0.82200
O58         O  0.90154081  0.35235649  0.08355404    -0.84800
C59         C  0.91742952  0.36043986  0.05998419     1.02900
O60         O  0.91227630  0.35422090  0.02725459    -0.77600
O61         O  0.88235385  0.37114502  0.50077435    -0.77700
C62         C  0.86401578  0.37314719  0.49703536     1.02800
Cr63       Cr  0.83564236  0.33042622  0.04060091     1.93700
Cr64       Cr  0.87215021  0.32186014  0.08010768     1.93200
Cr65       Cr  0.88007251  0.33907193  0.50061059     1.39100
O66         O  0.86291040  0.33041100  0.04064102    -1.22800
O67         O  0.84514427  0.48436168  0.26736456    -0.85100
O68         O  0.85035636  0.49292623  0.33998552    -0.82100
C69         C  0.85795074  0.50417983  0.36908316     0.98400
O70         O  0.86031025  0.52486352  0.37286288    -0.82100
O71         O  0.90263099  0.55094604  0.34133738    -0.84800
C72         C  0.91828086  0.55541733  0.31808210     1.02900
O73         O  0.91307535  0.55347442  0.28478004    -0.77600
O74         O  0.88331668  0.50681322  0.26401807    -0.77700
C75         C  0.86523733  0.48674305  0.26022605     1.02900
O76         O  0.82284513  0.51282501  0.26252488    -0.85100
O77         O  0.82082268  0.51447314  0.33641040    -0.82100
C78         C  0.82319902  0.53501419  0.33977849     0.98400
O79         O  0.84289816  0.55289068  0.33281956    -0.82200
O80         O  0.88801213  0.58077262  0.30382869    -0.84800
C81         C  0.88783341  0.58359841  0.26996241     1.02900
O82         O  0.88100492  0.56612329  0.24912521    -0.77600
O83         O  0.85254811  0.52131215  0.22573960    -0.77700
C84         C  0.83150570  0.51743970  0.23124795     1.02800
Cr85       Cr  0.83682661  0.50324265  0.30147651     1.93700
Cr86       Cr  0.87260544  0.55087114  0.33475639     1.93200
Cr87       Cr  0.88118271  0.53637809  0.25910180     1.39100
O88         O  0.86372762  0.53047296  0.29831151    -1.22800
O89         O  0.17803962  0.69162436  0.41969821    -0.85100
O90         O  0.17373595  0.69197053  0.49289994    -0.82100
C91         C  0.16478116  0.68925415  0.02339770     0.98400
O92         O  0.14375749  0.67256077  0.02961115    -0.82100
O93         O  0.11729519  0.68887149  0.49807758    -0.84800
C94         C  0.11076997  0.69829193  0.47436830     1.02900
O95         O  0.11011651  0.69264331  0.44141525    -0.77600
O96         O  0.15563174  0.70794325  0.41655527    -0.77700
C97         C  0.17565515  0.70949651  0.41289468     1.02900
O98         O  0.14934942  0.64129837  0.42125676    -0.85100
O99         O  0.15148534  0.64153289  0.49465058    -0.82100
C100        C  0.13144824  0.62357767  0.99958760     0.98400
O101        O  0.11327371  0.62564433  0.99481063    -0.82200
O102        O  0.08472966  0.64359670  0.46656301    -0.84800
C103        C  0.08036758  0.63791612  0.43352920     1.02900
O104        O  0.09660910  0.64649144  0.41062373    -0.77600
O105        O  0.13984254  0.66100038  0.38263580    -0.77700
C106        C  0.14343780  0.64368163  0.38986146     1.02800
Cr107      Cr  0.16119151  0.66665640  0.45700599     1.93700
Cr108      Cr  0.11581631  0.65772794  0.99444432     1.93200
Cr109      Cr  0.12625271  0.67651641  0.41580478     1.39100
O110        O  0.13423494  0.66711618  0.45563532    -1.22800
O111        O  0.02116853  0.83962991  0.15781336    -0.85100
O112        O  0.01980520  0.83600856  0.08422498    -0.82100
C113        C  0.01635614  0.82728769  0.05302813     0.98400
O114        O  0.99962979  0.80620389  0.04720395    -0.82100
O115        O  0.01738593  0.77989508  0.07558872    -0.84800
C116        C  0.02720213  0.77327155  0.09846658     1.02900
O117        O  0.02180265  0.77172936  0.13160181    -0.77600
O118        O  0.03750091  0.81714363  0.15949447    -0.77700
C119        C  0.03908187  0.83726861  0.16385188     1.02900
O120        O  0.97115147  0.81091628  0.15828734    -0.85100
O121        O  0.96948692  0.81324467  0.08523558    -0.82100
C122        C  0.95188125  0.79284316  0.08048302     0.98400
O123        O  0.95451168  0.77489943  0.08444176    -0.82200
O124        O  0.97289635  0.74626658  0.10778572    -0.84800
C125        C  0.96738171  0.74134153  0.14067311     1.02900
O126        O  0.97612466  0.75730711  0.16426280    -0.77600
O127        O  0.99123727  0.80032083  0.19473513    -0.77700
C128        C  0.97448336  0.80492780  0.18903490     1.02800
Cr129      Cr  0.99548399  0.82294036  0.12134275     1.93700
Cr130      Cr  0.98660410  0.77806047  0.08174522     1.93200
Cr131      Cr  0.00611205  0.78735185  0.15957746     1.39100
O132        O  0.99613996  0.79594210  0.12095548    -1.22800
O133        O  0.30873297  0.82594506  0.24465630    -0.85100
O134        O  0.30745574  0.82273210  0.17102482    -0.82100
C135        C  0.28901575  0.82442452  0.16627039     0.98400
O136        O  0.29013762  0.84431628  0.17088226    -0.82100
O137        O  0.30588314  0.89054212  0.19637129    -0.84800
C138        C  0.30119780  0.89023874  0.22960665     1.02900
O139        O  0.31076460  0.88343377  0.25264902    -0.77600
O140        O  0.32757174  0.85633015  0.28157780    -0.77700
C141        C  0.31164839  0.83486434  0.27566467     1.02900
O142        O  0.35902614  0.84913372  0.24419351    -0.85100
O143        O  0.35777725  0.85265019  0.17124659    -0.82100
C144        C  0.35451614  0.85903116  0.14077810     0.98400
O145        O  0.33618042  0.86097168  0.13443133    -0.82200
O146        O  0.35092264  0.90418030  0.16350090    -0.84800
C147        C  0.36053716  0.92035912  0.18663885     1.02900
O148        O  0.35572662  0.91588675  0.21986436    -0.77600
O149        O  0.37338686  0.88738985  0.24568661    -0.77700
C150        C  0.37626962  0.86961934  0.24987300     1.02800
Cr151      Cr  0.33310330  0.83957303  0.20771387     1.93700
Cr152      Cr  0.32129059  0.87423109  0.16928910     1.93200
Cr153      Cr  0.34130362  0.88444738  0.24698454     1.39100
O154        O  0.33178611  0.86627852  0.20812257    -1.22800
O155        O  0.15375064  0.97019109  0.34271173    -0.85100
O156        O  0.15078101  0.97062223  0.41564750    -0.82100
C157        C  0.15357142  0.95283997  0.42094127     0.98400
O158        O  0.17384824  0.95490509  0.41712484    -0.82100
O159        O  0.22001355  0.97206754  0.39150815    -0.84800
C160        C  0.21941505  0.96656233  0.35852041     1.02900
O161        O  0.21180342  0.97510766  0.33505327    -0.77600
O162        O  0.18300557  0.98923965  0.30483527    -0.77700
C163        C  0.16234539  0.97202578  0.31177015     1.02900
O164        O  0.17464934  0.02049446  0.34034350    -0.85100
O165        O  0.17855616  0.02110775  0.41379696    -0.82100
C166        C  0.18518456  0.01882446  0.44474927     0.98400
O167        O  0.18867040  0.00140401  0.45151502    -0.82200
O168        O  0.23191085  0.01761753  0.42259508    -0.84800
C169        C  0.24772169  0.02703653  0.39910176     1.02900
O170        O  0.24308754  0.02121911  0.36610969    -0.77600
O171        O  0.21289266  0.03656603  0.33949585    -0.77700
C172        C  0.19462465  0.03841586  0.33477744     1.02800
Cr173      Cr  0.16645755  0.99565566  0.37817694     1.93700
Cr174      Cr  0.20279580  0.98689370  0.41772626     1.93200
Cr175      Cr  0.21145316  0.00507456  0.33924732     1.39100
O176        O  0.19379550  0.99580748  0.37834871    -1.22800
O177        O  0.50331571  0.14543277  0.07398748    -0.85100
O178        O  0.50781666  0.15105217  0.99986112    -0.82100
C179        C  0.50579083  0.13104308  0.49471326     0.98400
O180        O  0.48634085  0.11278133  0.50071929    -0.82100
O181        O  0.44278039  0.08298173  0.02802769    -0.84800
C182        C  0.43933208  0.07876452  0.06150227     1.02900
O183        O  0.44132553  0.09454615  0.08320513    -0.77600
O184        O  0.47325234  0.13665113  0.11073726    -0.77700
C185        C  0.49334773  0.13817381  0.10412837     1.02900
O186        O  0.48474584  0.17687341  0.07643543    -0.85100
O187        O  0.47929258  0.17289000  0.50278840    -0.82100
C188        C  0.47187184  0.16332821  0.47234827     0.98400
O189        O  0.46793252  0.14221833  0.46563133    -0.82200
O190        O  0.42544563  0.11128645  0.99299550    -0.84800
C191        C  0.40997385  0.11008216  0.01446746     1.02900
O192        O  0.41446644  0.11377431  0.04793501    -0.77600
O193        O  0.44647090  0.15780794  0.07513675    -0.77700
C194        C  0.46545054  0.17661553  0.08148547     1.02800
Cr195      Cr  0.49159904  0.15938838  0.03817722     1.93700
Cr196      Cr  0.45607910  0.11385485  0.49994386     1.93200
Cr197      Cr  0.44530356  0.12633526  0.07611557     1.39100
O198        O  0.46396224  0.13274061  0.03800782    -1.22800
O199        O  0.84580810  0.02471249  0.07873670    -0.85100
O200        O  0.84363903  0.02634550  0.15163266    -0.82100
C201        C  0.83534974  0.02521741  0.18259802     0.98400
O202        O  0.81458908  0.00855046  0.19027377    -0.82100
O203        O  0.78687404  0.02409977  0.15992134    -0.84800
C204        C  0.77912716  0.03257788  0.13651413     1.02900
O205        O  0.77816307  0.02659608  0.10365357    -0.77600
O206        O  0.82414585  0.04196250  0.07763898    -0.77700
C207        C  0.84406665  0.04310561  0.07403649     1.02900
O208        O  0.81725107  0.97475330  0.08118918    -0.85100
O209        O  0.82121126  0.97597851  0.15517373    -0.82100
C210        C  0.80100286  0.95874675  0.16173888     0.98400
O211        O  0.78306296  0.96126507  0.15758040    -0.82200
O212        O  0.75401895  0.97786628  0.13041050    -0.84800
C213        C  0.74893763  0.97160330  0.09765466     1.02900
O214        O  0.76457081  0.98026306  0.07371493    -0.77600
O215        O  0.80752463  0.99502714  0.04365800    -0.77700
C216        C  0.81170493  0.97797952  0.04993182     1.02800
Cr217      Cr  0.82992324  0.00042237  0.11679021     1.93700
Cr218      Cr  0.78584919  0.99333137  0.15656819     1.93200
Cr219      Cr  0.79438078  0.01052116  0.07760175     1.39100
O220        O  0.80309709  0.00133211  0.11694909    -1.22800
O221        O  0.49045405  0.84926517  0.49864004    -0.85100
O222        O  0.49334861  0.85360077  0.42455447    -0.82100
C223        C  0.50210024  0.86006443  0.39352845     0.98400
O224        O  0.52313787  0.86406570  0.38707103    -0.82100
O225        O  0.55087355  0.90700308  0.41555858    -0.84800
C226        C  0.55607237  0.92291498  0.43869967     1.02900
O227        O  0.55592271  0.91855076  0.47211746    -0.77600
O228        O  0.51074938  0.88734713  0.99780521    -0.77700
C229        C  0.49165295  0.86858333  0.00404465     1.02900
O230        O  0.52095452  0.82891177  0.99479812    -0.85100
O231        O  0.51604048  0.82572777  0.42204623    -0.82100
C232        C  0.53622961  0.82796573  0.41682091     0.98400
O233        O  0.55422870  0.84785625  0.42218290    -0.82200
O234        O  0.58318712  0.89340615  0.44813332    -0.84800
C235        C  0.58798116  0.89398401  0.48149272     1.02900
O236        O  0.57205617  0.88831354  0.50469891    -0.77600
O237        O  0.52970743  0.85852104  0.03253990    -0.77700
C238        C  0.52736331  0.83806459  0.02560831     1.02800
Cr239      Cr  0.50708327  0.84147425  0.46022989     1.93700
Cr240      Cr  0.55159498  0.87731595  0.42126670     1.93200
Cr241      Cr  0.54134249  0.88690686  0.99826810     1.39100
O242        O  0.53367143  0.86896900  0.46022578    -1.22800
O243        O  0.68807304  0.17546701  0.32224081    -0.85100
O244        O  0.68868429  0.17154678  0.24871584    -0.82100
C245        C  0.68602614  0.16278067  0.21761456     0.98400
O246        O  0.66935584  0.14170981  0.21123684    -0.82100
O247        O  0.68486637  0.11357370  0.24021835    -0.84800
C248        C  0.69560204  0.10836527  0.26359063     1.02900
O249        O  0.69115641  0.10852060  0.29692843    -0.77600
O250        O  0.70523916  0.15380304  0.32408488    -0.77700
C251        C  0.70606793  0.17348131  0.32924360     1.02900
O252        O  0.63830785  0.14653338  0.32013048    -0.85100
O253        O  0.63872354  0.14971741  0.24638904    -0.82100
C254        C  0.62094785  0.12955706  0.24127990     0.98400
O255        O  0.62299199  0.11140503  0.24663701    -0.82200
O256        O  0.63930184  0.08184426  0.27227545    -0.84800
C257        C  0.63475627  0.07740619  0.30552754     1.02900
O258        O  0.64509506  0.09342260  0.32864132    -0.77600
O259        O  0.65799058  0.13602307  0.35778113    -0.77700
C260        C  0.64116111  0.14049312  0.35118929     1.02800
Cr261      Cr  0.66351392  0.15868851  0.28435571     1.93700
Cr262      Cr  0.65469298  0.11345832  0.24564768     1.93200
Cr263      Cr  0.67433040  0.12365666  0.32376845     1.39100
O264        O  0.66424082  0.13165108  0.28464184    -1.22800
O265        O  0.51607163  0.36390238  0.25560612    -0.85100
O266        O  0.51274049  0.36428330  0.32971688    -0.82100
C267        C  0.50371512  0.36120622  0.36066573     0.98400
O268        O  0.48252374  0.34471494  0.36597138    -0.82100
O269        O  0.45536029  0.36099163  0.33466639    -0.84800
C270        C  0.44804213  0.36953144  0.31064056     1.02900
O271        O  0.44726732  0.36347499  0.27788092    -0.77600
O272        O  0.49292822  0.37942805  0.25108576    -0.77700
C273        C  0.51318437  0.38134499  0.24788120     1.02900
O274        O  0.48840550  0.31355127  0.25688692    -0.85100
O275        O  0.49081354  0.31388542  0.33066371    -0.82100
C276        C  0.47063475  0.29634804  0.33663518     0.98400
O277        O  0.45245447  0.29836075  0.33129542    -0.82200
O278        O  0.42297023  0.31502559  0.30444070    -0.84800
C279        C  0.41809573  0.30889311  0.27165686     1.02900
O280        O  0.43417948  0.31720075  0.24841267    -0.77600
O281        O  0.47710306  0.33222330  0.21876858    -0.77700
C282        C  0.48198405  0.31574778  0.22572408     1.02800
Cr283      Cr  0.49989302  0.33896563  0.29308383     1.93700
Cr284      Cr  0.45464170  0.33027118  0.33104704     1.93200
Cr285      Cr  0.46370099  0.34765290  0.25219665     1.39100
O286        O  0.47261245  0.33907462  0.29208949    -1.22800
O287        O  0.18635789  0.15786231  0.08691145    -0.85100
O288        O  0.18759560  0.16032529  0.16016601    -0.82100
C289        C  0.19287788  0.16882345  0.19143416     0.98400
O290        O  0.19618816  0.18966738  0.19813528    -0.82100
O291        O  0.24018923  0.21830652  0.17263529    -0.84800
C292        C  0.25702142  0.22481407  0.15088409     1.02900
O293        O  0.25339496  0.22501525  0.11718255    -0.77600
O294        O  0.22466954  0.17926054  0.08974667    -0.77700
C295        C  0.20645480  0.15943448  0.08447068     1.02900
O296        O  0.16453740  0.18647918  0.08595862    -0.85100
O297        O  0.15887764  0.18226415  0.15927852    -0.82100
C298        C  0.16085273  0.20243038  0.16454169     0.98400
O299        O  0.18080452  0.22057984  0.16059848    -0.82200
O300        O  0.22671932  0.25022814  0.13805696    -0.84800
C301        C  0.22728701  0.25492729  0.10468378     1.02900
O302        O  0.22240703  0.23913346  0.08135290    -0.77600
O303        O  0.19551048  0.19642281  0.05100585    -0.77700
C304        C  0.17421103  0.19218345  0.05553064     1.02800
Cr305      Cr  0.17636226  0.17378333  0.12325506     1.93700
Cr306      Cr  0.21034170  0.21844149  0.16436676     1.93200
Cr307      Cr  0.22268963  0.20918270  0.08767192     1.39100
O308        O  0.20343474  0.20077102  0.12510742    -1.22800
O309        O  0.35551239  0.50889875  0.49895181    -0.85100
O310        O  0.35473224  0.50746164  0.42542308    -0.82100
C311        C  0.35185646  0.49939214  0.39387980     0.98400
O312        O  0.33532007  0.47841168  0.38657639    -0.82100
O313        O  0.35063693  0.44931481  0.41180720    -0.84800
C314        C  0.36112065  0.44283452  0.43374464     1.02900
O315        O  0.35698040  0.44215123  0.46725045    -0.77600
O316        O  0.37184365  0.48727822  0.99480489    -0.77700
C317        C  0.37299268  0.50691453  0.00184159     1.02900
O318        O  0.30480320  0.47987108  0.99794091    -0.85100
O319        O  0.30477740  0.48576109  0.42528733    -0.82100
C320        C  0.28718603  0.46587127  0.41808259     0.98400
O321        O  0.28911687  0.44750417  0.42189187    -0.82200
O322        O  0.30559519  0.41720313  0.44450731    -0.84800
C323        C  0.30155299  0.41195827  0.47767141     1.02900
O324        O  0.31192408  0.42731834  0.50168536    -0.77600
O325        O  0.32610038  0.46963667  0.03247249    -0.77700
C326        C  0.30904772  0.47401531  0.02827109     1.02800
Cr327      Cr  0.33018290  0.49348367  0.46188764     1.93700
Cr328      Cr  0.32070706  0.44931662  0.41931541     1.93200
Cr329      Cr  0.34077112  0.45730140  0.99576249     1.39100
O330        O  0.33074556  0.46642197  0.45921595    -1.22800
O331        O  0.48991567  0.63831916  0.17758575    -0.85100
O332        O  0.48754911  0.64174655  0.25095702    -0.82100
C333        C  0.48968456  0.62379331  0.25774575     0.98400
O334        O  0.50954510  0.62501475  0.25374374    -0.82100
O335        O  0.55405763  0.63894572  0.22610670    -0.84800
C336        C  0.55355334  0.63320344  0.19326391     1.02900
O337        O  0.54776556  0.64303175  0.16912583    -0.77600
O338        O  0.51881716  0.65713319  0.13880715    -0.77700
C339        C  0.49852683  0.63978211  0.14671735     1.02900
O340        O  0.51075003  0.68846004  0.17145233    -0.85100
O341        O  0.51581478  0.69157471  0.24533090    -0.82100
C342        C  0.52247762  0.68978187  0.27656953     0.98400
O343        O  0.52714147  0.67322992  0.28427590    -0.82200
O344        O  0.56953286  0.68603557  0.25434908    -0.84800
C345        C  0.58493369  0.69474224  0.23015896     1.02900
O346        O  0.57954047  0.68933939  0.19731068    -0.77600
O347        O  0.54909435  0.70496835  0.17013674    -0.77700
C348        C  0.53050110  0.70604167  0.16373898     1.02800
Cr349      Cr  0.50310906  0.66504946  0.21133136     1.93700
Cr350      Cr  0.53927015  0.65630357  0.25152466     1.93200
Cr351      Cr  0.54759234  0.67325199  0.17197592     1.39100
O352        O  0.53033538  0.66491540  0.21169657    -1.22800
O353        O  0.66435624  0.50527640  0.09994704    -0.85100
O354        O  0.63404827  0.49093332  0.04243575    -0.82100
C355        C  0.62365710  0.49240097  0.51503111     0.98400
O356        O  0.63260910  0.51162491  0.49751299    -0.82100
O357        O  0.63315048  0.54635409  0.04456869    -0.84800
C358        C  0.64050558  0.56164903  0.06974176     1.02900
O359        O  0.66219778  0.57221557  0.07800128    -0.77600
O360        O  0.65842556  0.53448075  0.11608702    -0.77700
C361        C  0.65350547  0.51302921  0.11920005     1.02900
O362        O  0.70393626  0.52457526  0.05130463    -0.85100
O363        O  0.67387330  0.50948646  0.49345380    -0.82100
C364        C  0.68452531  0.52748252  0.47337885     0.98400
O365        O  0.68057635  0.54476564  0.47691305    -0.82200
O366        O  0.67856538  0.57999689  0.01449188    -0.84800
C367        C  0.69996742  0.59093956  0.02469088     1.02900
O368        O  0.70706343  0.58213739  0.04921282    -0.77600
O369        O  0.70644841  0.54730880  0.09640145    -0.77700
C370        C  0.71482004  0.53643715  0.07863904     1.02800
Cr371      Cr  0.66906524  0.50962722  0.04686681     1.93700
Cr372      Cr  0.65691955  0.54491484  0.51113090     1.93200
Cr373      Cr  0.68289008  0.55762568  0.08249613     1.39100
O374        O  0.66966543  0.53732877  0.04660581    -1.22800
O375        O  0.81624320  0.83962480  0.33727158    -0.85100
O376        O  0.81846140  0.84071881  0.41023277    -0.82100
C377        C  0.79857030  0.83949197  0.41467781     0.98400
O378        O  0.77992761  0.82010028  0.40883522    -0.82100
O379        O  0.74961900  0.77455476  0.38212326    -0.84800
C380        C  0.74501576  0.77610939  0.34935243     1.02900
O381        O  0.76106555  0.78343157  0.32616203    -0.77600
O382        O  0.80423090  0.81053698  0.29788266    -0.77700
C383        C  0.80887978  0.83160118  0.30615630     1.02900
O384        O  0.84247394  0.81533596  0.33391605    -0.85100
O385        O  0.83804682  0.80934572  0.40729791    -0.82100
C386        C  0.82831665  0.80270805  0.43760413     0.98400
O387        O  0.80861099  0.80187089  0.44382009    -0.82200
O388        O  0.78096515  0.75959348  0.41257601    -0.84800
C389        C  0.77473312  0.74401267  0.38846149     1.02900
O390        O  0.77368376  0.74914755  0.35563591    -0.77600
O391        O  0.81876624  0.77731683  0.32951192    -0.77700
C392        C  0.83923742  0.79487768  0.32698874     1.02800
Cr393      Cr  0.82689589  0.82436167  0.37211586     1.93700
Cr394      Cr  0.78097143  0.78980414  0.40894505     1.93200
Cr395      Cr  0.79017644  0.78128826  0.33022434     1.39100
O396        O  0.79909192  0.79826066  0.37027647    -1.22800
C397        C  0.77264236  0.69571826  0.44808060    -0.01700
C398        C  0.75108748  0.67576920  0.43787948     0.06900
C399        C  0.73883988  0.67763029  0.40779212    -0.07700
C400        C  0.74712780  0.69920419  0.38903612     0.04300
C401        C  0.76802285  0.71953204  0.40063187    -0.14900
C402        C  0.78087710  0.71718609  0.42946654    -0.08300
C403        C  0.73940952  0.65431441  0.46143593     0.05200
C404        C  0.72006690  0.65123143  0.98219694    -0.09400
C405        C  0.70804718  0.63146426  0.00461493     0.00200
C406        C  0.71559944  0.61433730  0.00761522     0.00100
C407        C  0.73554882  0.61778243  0.48771120    -0.12900
C408        C  0.74748614  0.63763849  0.46486293     0.00600
C409        C  0.68775623  0.62917416  0.02398495     0.39900
C410        C  0.76734673  0.64007671  0.44411765     0.36500
C411        C  0.78560712  0.69511503  0.47936270     0.36200
C412        C  0.73290679  0.70054743  0.36011044     0.37000
N413        N  0.67153866  0.62773857  0.03915151    -0.43800
N414        N  0.78328999  0.64210723  0.42743052    -0.44300
N415        N  0.72150238  0.70161581  0.33691268    -0.41600
N416        N  0.79597440  0.69466860  0.50449189    -0.43100
H417        H  0.79701682  0.73276638  0.43887924     0.13100
H418        H  0.72198008  0.66231964  0.39995046     0.09600
H419        H  0.71397390  0.66407981  0.98008112     0.10700
H420        H  0.74114396  0.60452410  0.48887822     0.16500
C421        C  0.64829284  0.71391067  0.25543959    -0.01700
C422        C  0.65360936  0.73299935  0.27920096     0.06900
C423        C  0.63744310  0.74147419  0.28232149    -0.07700
C424        C  0.61566267  0.73033412  0.26404063     0.04300
C425        C  0.60972603  0.71038433  0.24194393    -0.14900
C426        C  0.62644832  0.70273264  0.23714466    -0.08300
C427        C  0.67610689  0.74474026  0.30040788     0.05200
C428        C  0.69292483  0.76828556  0.29232616    -0.09400
C429        C  0.71501520  0.77949298  0.30969738     0.00200
C430        C  0.72040524  0.76728910  0.33651241     0.00100
C431        C  0.70298416  0.74431262  0.34628072    -0.12900
C432        C  0.68111250  0.73287450  0.32821867     0.00600
C433        C  0.73197682  0.80341756  0.29911763     0.39900
C434        C  0.66443015  0.70872478  0.33800764     0.36500
C435        C  0.66495161  0.70546398  0.24959169     0.36200
C436        C  0.59963675  0.73972715  0.26815027     0.37000
N437        N  0.74545595  0.82258400  0.29049241    -0.43800
N438        N  0.65127196  0.68928981  0.34583133    -0.44300
N439        N  0.58689717  0.74741137  0.27103932    -0.41600
N440        N  0.67837036  0.69876937  0.24497621    -0.43100
H441        H  0.62199310  0.68731300  0.22046525     0.13100
H442        H  0.64164569  0.75652553  0.29970260     0.09600
H443        H  0.68908570  0.77766517  0.27140120     0.10700
H444        H  0.70701452  0.73468707  0.36655528     0.16500
C445        C  0.58945616  0.60116105  0.18873492    -0.01700
C446        C  0.58403446  0.59141467  0.15366430     0.06900
C447        C  0.56580185  0.59211068  0.13447109    -0.07700
C448        C  0.55443677  0.60409955  0.14801335     0.04300
C449        C  0.56131308  0.61591996  0.18176557    -0.14900
C450        C  0.57812245  0.61330993  0.20247551    -0.08300
C451        C  0.59875037  0.58308193  0.13428831     0.05200
C452        C  0.58827142  0.55973474  0.12068399    -0.09400
C453        C  0.60117600  0.55225611  0.09892540     0.00200
C454        C  0.62490922  0.56843612  0.08997995     0.00100
C455        C  0.63530269  0.59160949  0.10418468    -0.12900
C456        C  0.62251426  0.59909784  0.12558772     0.00600
C457        C  0.59019323  0.52765181  0.08809115     0.39900
C458        C  0.63401571  0.62364208  0.13708395     0.36500
C459        C  0.60705232  0.59950631  0.21060519     0.36200
C460        C  0.53635700  0.60446500  0.12566347     0.37000
N461        N  0.58150221  0.50787162  0.07969855    -0.43800
N462        N  0.64328474  0.64329470  0.14628934    -0.44300
N463        N  0.52209004  0.60455762  0.10697619    -0.41600
N464        N  0.62117188  0.59821204  0.22815152    -0.43100
H465        H  0.58340296  0.62186485  0.22857047     0.13100
H466        H  0.56129047  0.58433125  0.10776097     0.09600
H467        H  0.56996929  0.54732865  0.12716229     0.10700
H468        H  0.65369966  0.60411558  0.09858591     0.16500
C469        C  0.45194504  0.56972262  0.31528806    -0.01700
C470        C  0.42888028  0.56366178  0.30367200     0.06900
C471        C  0.42606145  0.57612190  0.27501878    -0.07700
C472        C  0.44570781  0.59498878  0.25870918     0.04300
C473        C  0.46885459  0.60194786  0.27138087    -0.14900
C474        C  0.47173118  0.58866299  0.29894738    -0.08300
C475        C  0.40746234  0.54629956  0.32347242     0.05200
C476        C  0.39613971  0.55515615  0.34568728    -0.09400
C477        C  0.37684161  0.53988427  0.36686483     0.00200
C478        C  0.36846369  0.51510622  0.36605844     0.00100
C479        C  0.37888359  0.50608175  0.34210401    -0.12900
C480        C  0.39833137  0.52152427  0.32089193     0.00600
C481        C  0.36610136  0.55017072  0.38953191     0.39900
C482        C  0.40882036  0.51168942  0.29697379     0.36500
C483        C  0.45561864  0.55755031  0.34511324     0.36200
C484        C  0.44152534  0.60663039  0.22861739     0.37000
N485        N  0.35749279  0.55835914  0.40775345    -0.43800
N486        N  0.41723840  0.50389028  0.27762596    -0.44300
N487        N  0.43803420  0.61576318  0.20438238    -0.41600
N488        N  0.45849961  0.54776420  0.36904375    -0.43100
H489        H  0.48935570  0.59375010  0.30884345     0.13100
H490        H  0.40835920  0.57138230  0.26587867     0.09600
H491        H  0.40280282  0.57415338  0.34713252     0.10700
H492        H  0.37264313  0.48716695  0.34126989     0.16500
C493        C  0.46744227  0.60949612  0.05976392    -0.01700
C494        C  0.45323457  0.58580308  0.07136865     0.06900
C495        C  0.45580643  0.57970771  0.10656743    -0.07700
C496        C  0.47121945  0.59693011  0.13078548     0.04300
C497        C  0.48426323  0.62101632  0.12011475    -0.14900
C498        C  0.48279694  0.62694308  0.08418662    -0.08300
C499        C  0.43423924  0.56721284  0.04869704     0.05200
C500        C  0.43570061  0.54698547  0.03874354    -0.09400
C501        C  0.41648211  0.52740661  0.02228645     0.00200
C502        C  0.39501134  0.52770257  0.01611264     0.00100
C503        C  0.39411118  0.54849913  0.02494880    -0.12900
C504        C  0.41331483  0.56800297  0.04112141     0.00600
C505        C  0.42029082  0.50749111  0.51324949     0.39900
C506        C  0.41059482  0.58808997  0.05161228     0.36500
C507        C  0.46655601  0.61619328  0.02299970     0.36200
C508        C  0.47410629  0.58911772  0.16592853     0.37000
N509        N  0.42274140  0.49148884  0.50530846    -0.43800
N510        N  0.40841262  0.60417982  0.05999582    -0.44300
N511        N  0.47656355  0.58259074  0.19376986    -0.41600
N512        N  0.46485632  0.62177010  0.49472104    -0.43100
H513        H  0.49310803  0.64523796  0.07547781     0.13100
H514        H  0.44534276  0.56143839  0.11537732     0.09600
H515        H  0.45178903  0.54629356  0.04467056     0.10700
H516        H  0.37801438  0.54940600  0.02021870     0.16500
C517        C  0.22976112  0.30273613  0.04333143    -0.01700
C518        C  0.25196561  0.32229585  0.05196603     0.06900
C519        C  0.26474014  0.32047221  0.08132969    -0.07700
C520        C  0.25619022  0.29918418  0.10093108     0.04300
C521        C  0.23447500  0.27921100  0.09114972    -0.14900
C522        C  0.22129183  0.28147119  0.06271205    -0.08300
C523        C  0.26280967  0.34415529  0.02920853     0.05200
C524        C  0.25475120  0.36070454  0.03205663    -0.09400
C525        C  0.26574652  0.38214120  0.01272390     0.00200
C526        C  0.28559936  0.38735531  0.49003316     0.00100
C527        C  0.29305236  0.37038821  0.48639099    -0.12900
C528        C  0.28123251  0.34868093  0.00481717     0.00600
C529        C  0.25740766  0.39901550  0.01750802     0.39900
C530        C  0.29114041  0.33265698  0.50261093     0.36500
C531        C  0.21602278  0.30372694  0.01339682     0.36200
C532        C  0.27090192  0.29768661  0.12891166     0.37000
N533        N  0.25067981  0.41252061  0.02107337    -0.43800
N534        N  0.29824158  0.31940032  0.49988820    -0.44300
N535        N  0.28273001  0.29647080  0.15128218    -0.41600
N536        N  0.20514665  0.30470515  0.98934893    -0.43100
H537        H  0.20467878  0.26618838  0.05465553     0.13100
H538        H  0.28186132  0.33546292  0.08808707     0.09600
H539        H  0.24034243  0.35719476  0.05026066     0.10700
H540        H  0.30823608  0.37434531  0.46967680     0.16500
C541        C  0.55851563  0.40168329  0.41512549    -0.01700
C542        C  0.54940573  0.41013725  0.44236752     0.06900
C543        C  0.52480437  0.40112152  0.44426612    -0.07700
C544        C  0.50938678  0.38432873  0.41907531     0.04300
C545        C  0.51863440  0.37668523  0.39073840    -0.14900
C546        C  0.54322884  0.38529550  0.38963755    -0.08300
C547        C  0.56559936  0.43029829  0.46610623     0.05200
C548        C  0.56858228  0.45291099  0.45891318    -0.09400
C549        C  0.58632742  0.47319890  0.47615640     0.00200
C550        C  0.60175250  0.47115741  0.50130263     0.00100
C551        C  0.59746270  0.44818940  0.51049060    -0.12900
C552        C  0.57964192  0.42789526  0.49311443     0.00600
C553        C  0.58840394  0.49587597  0.46696977     0.39900
C554        C  0.57639398  0.40482673  0.50277667     0.36500
C555        C  0.58365531  0.41039556  0.41180002     0.36200
C556        C  0.48437110  0.37633856  0.42180796     0.37000
N557        N  0.59002810  0.51402813  0.45954399    -0.43800
N558        N  0.57373184  0.38631778  0.51057302    -0.44300
N559        N  0.46431813  0.36995435  0.42404253    -0.41600
N560        N  0.60379816  0.41734158  0.40925285    -0.43100
H561        H  0.55063810  0.37947251  0.36838354     0.13100
H562        H  0.51769964  0.40767474  0.46495450     0.09600
H563        H  0.55758356  0.45483423  0.43855828     0.10700
H564        H  0.60877263  0.44608805  0.53004960     0.16500
C565        C  0.60718047  0.45423183  0.15797386    -0.01700
C566        C  0.59345522  0.46068565  0.17972898     0.06900
C567        C  0.60021998  0.48484308  0.18332512    -0.07700
C568        C  0.62020988  0.50249039  0.16529195     0.04300
C569        C  0.63399776  0.49601113  0.14317898    -0.14900
C570        C  0.62717939  0.47171206  0.14034328    -0.08300
C571        C  0.57251574  0.44227357  0.19959667     0.05200
C572        C  0.57627441  0.42930863  0.22655784    -0.09400
C573        C  0.55725570  0.41008535  0.24344208     0.00200
C574        C  0.53364306  0.40339718  0.23350967     0.00100
C575        C  0.52987186  0.41715753  0.20768163    -0.12900
C576        C  0.54906162  0.43636528  0.19057416     0.00600
C577        C  0.56264602  0.39764368  0.27099121     0.39900
C578        C  0.54430806  0.44894520  0.16252988     0.36500
C579        C  0.60052628  0.42961436  0.15205865     0.36200
C580        C  0.62587181  0.52691474  0.17001918     0.37000
N581        N  0.56705127  0.38770232  0.29298820    -0.43800
N582        N  0.54054144  0.45902447  0.13998002    -0.44300
N583        N  0.63028205  0.54644250  0.17404324    -0.41600
N584        N  0.59517978  0.40990894  0.14714872    -0.43100
H585        H  0.63703560  0.46606242  0.12320717     0.13100
H586        H  0.58980961  0.48991332  0.20027510     0.09600
H587        H  0.59427797  0.43394548  0.23387903     0.10700
H588        H  0.51192699  0.41228291  0.19968323     0.16500
C589        C  0.32265660  0.26540048  0.17006259    -0.01700
C590        C  0.32571680  0.25638465  0.20313392     0.06900
C591        C  0.30671849  0.23570926  0.21699592    -0.07700
C592        C  0.28479432  0.22432476  0.19908473     0.04300
C593        C  0.28128598  0.23369984  0.16648521    -0.14900
C594        C  0.30066315  0.25402625  0.15198596    -0.08300
C595        C  0.34879484  0.26786048  0.22310913     0.05200
C596        C  0.35120904  0.28056140  0.25506895    -0.09400
C597        C  0.37323122  0.29290548  0.27295312     0.00200
C598        C  0.39339618  0.29270561  0.25872301     0.00100
C599        C  0.39044098  0.27880762  0.22788027    -0.12900
C600        C  0.36849466  0.26640120  0.21033522     0.00600
C601        C  0.37485332  0.30661929  0.30456769     0.39900
C602        C  0.36656295  0.25227706  0.17908690     0.36500
C603        C  0.34163931  0.28685672  0.15494454     0.36200
C604        C  0.26633192  0.20280999  0.21486064     0.37000
N605        N  0.37609039  0.31754123  0.32997513    -0.43800
N606        N  0.36486094  0.24084294  0.15410799    -0.44300
N607        N  0.25185477  0.18557947  0.22802103    -0.41600
N608        N  0.35693532  0.30408679  0.14300377    -0.43100
H609        H  0.29834304  0.26169873  0.12742111     0.13100
H610        H  0.30905329  0.22839892  0.24195835     0.09600
H611        H  0.33601446  0.28141957  0.26545543     0.10700
H612        H  0.40553832  0.27804205  0.21686291     0.16500
C613        C  0.40344314  0.38918695  0.33320408    -0.01700
C614        C  0.41590481  0.40712802  0.35902913     0.06900
C615        C  0.44002500  0.41492894  0.36479044    -0.07700
C616        C  0.45139882  0.40419005  0.34677369     0.04300
C617        C  0.43858376  0.38523504  0.32251374    -0.14900
C618        C  0.41482649  0.37846072  0.31511436    -0.08300
C619        C  0.40396888  0.41786195  0.38021852     0.05200
C620        C  0.39267203  0.40728031  0.41271620    -0.09400
C621        C  0.37964277  0.41582928  0.43191326     0.00200
C622        C  0.37777384  0.43536153  0.41853337     0.00100
C623        C  0.38989276  0.44638013  0.38661716    -0.12900
C624        C  0.40285469  0.43783978  0.36757429     0.00600
C625        C  0.36714405  0.40326075  0.46382236     0.39900
C626        C  0.41427129  0.44938677  0.33445613     0.36500
C627        C  0.37875965  0.38105064  0.32571174     0.36200
C628        C  0.47631871  0.41300886  0.35332871     0.37000
N629        N  0.35711080  0.39315166  0.48938300    -0.43800
N630        N  0.42342818  0.45858477  0.30788080    -0.44300
N631        N  0.49634570  0.42022401  0.35826857    -0.41600
N632        N  0.35897803  0.37459674  0.31974786    -0.43100
H633        H  0.40477900  0.36388277  0.29668507     0.13100
H634        H  0.44986946  0.42915421  0.38386064     0.09600
H635        H  0.39345786  0.39187670  0.42251341     0.10700
H636        H  0.38872247  0.46138231  0.37593168     0.16500
C637        C  0.59779516  0.98401615  0.40410730    -0.01700
C638        C  0.58308239  0.98803684  0.38031848     0.06900
C639        C  0.55868311  0.97196071  0.37994836    -0.07700
C640        C  0.54909146  0.95150647  0.40158229     0.04300
C641        C  0.56393441  0.94708711  0.42460973    -0.14900
C642        C  0.58815265  0.96376231  0.42613400    -0.08300
C643        C  0.59283415  0.00990237  0.35777089     0.05200
C644        C  0.60251073  0.01044394  0.32369600    -0.09400
C645        C  0.61483780  0.03191617  0.30440695     0.00200
C646        C  0.61770358  0.05329399  0.31948802     0.00100
C647        C  0.60651323  0.05214102  0.35247554    -0.12900
C648        C  0.59437007  0.03087640  0.37159610     0.00600
C649        C  0.62561203  0.03176207  0.27055781     0.39900
C650        C  0.58477047  0.03119830  0.40646705     0.36500
C651        C  0.62298259  0.00015150  0.40548519     0.36200
C652        C  0.52398465  0.93503396  0.39943404     0.37000
N653        N  0.63422413  0.03165701  0.24337045    -0.43800
N654        N  0.57712278  0.03126940  0.43452492    -0.44300
N655        N  0.50385350  0.92187030  0.39788725    -0.41600
N656        N  0.64317265  0.01311332  0.40638151    -0.43100
H657        H  0.59979404  0.96024504  0.44299200     0.13100
H658        H  0.54718501  0.97524038  0.36237443     0.09600
H659        H  0.60127447  0.99425701  0.31285486     0.10700
H660        H  0.60816401  0.06825802  0.36432408     0.16500
C661        C  0.51746248  0.79760446  0.10500114    -0.01700
C662        C  0.53333763  0.78907720  0.09718738     0.06900
C663        C  0.54905619  0.79901827  0.06834169    -0.07700
C664        C  0.54828529  0.81619305  0.04621330     0.04300
C665        C  0.53177796  0.82405737  0.05305831    -0.14900
C666        C  0.51693627  0.81515407  0.08313488    -0.08300
C667        C  0.53245001  0.76831016  0.11623985     0.05200
C668        C  0.51327018  0.74565070  0.10952268    -0.09400
C669        C  0.51251035  0.72527369  0.12419459     0.00200
C670        C  0.53126062  0.72728928  0.14645206     0.00100
C671        C  0.55052321  0.75006180  0.15306909    -0.12900
C672        C  0.55119405  0.77045258  0.13825213     0.00600
C673        C  0.49271945  0.70246596  0.11449600     0.39900
C674        C  0.57103225  0.79348522  0.14648643     0.36500
C675        C  0.50116757  0.78813766  0.13470669     0.36200
C676        C  0.56414970  0.82499003  0.01583880     0.37000
N677        N  0.47691277  0.68418951  0.10666529    -0.43800
N678        N  0.58683695  0.81202364  0.15309951    -0.44300
N679        N  0.57683839  0.83202697  0.99149613    -0.41600
N680        N  0.48809463  0.78055936  0.15852816    -0.43100
H681        H  0.50403176  0.82088940  0.08833260     0.13100
H682        H  0.56126745  0.79255314  0.06213233     0.09600
H683        H  0.49906196  0.74384443  0.09196840     0.10700
H684        H  0.56490468  0.75198506  0.17028493     0.16500
C685        C  0.51768805  0.76403938  0.39580158    -0.01700
C686        C  0.53535061  0.76612037  0.37166373     0.06900
C687        C  0.55501376  0.78864467  0.36555255    -0.07700
C688        C  0.55655792  0.80909217  0.38153419     0.04300
C689        C  0.53788649  0.80712990  0.40350758    -0.14900
C690        C  0.51900830  0.78438304  0.41121754    -0.08300
C691        C  0.53195929  0.74548429  0.34947594     0.05200
C692        C  0.51197086  0.73469348  0.32704167    -0.09400
C693        C  0.50798017  0.71569653  0.30472998     0.00200
C694        C  0.52440272  0.70725422  0.30403537     0.00100
C695        C  0.54405831  0.71747989  0.32734524    -0.12900
C696        C  0.54804614  0.73663875  0.34978790     0.00600
C697        C  0.48662523  0.70492723  0.28318846     0.39900
C698        C  0.56870079  0.74698481  0.37276449     0.36500
C699        C  0.49775774  0.74118650  0.40462598     0.36200
C700        C  0.57679171  0.83182960  0.37332548     0.37000
N701        N  0.46951176  0.69620019  0.26597277    -0.43800
N702        N  0.58526818  0.75539219  0.39117593    -0.44300
N703        N  0.59306453  0.85005658  0.36688222    -0.41600
N704        N  0.48180139  0.72285553  0.41159437    -0.43100
H705        H  0.50485709  0.78247194  0.42886693     0.13100
H706        H  0.56867406  0.79038136  0.34699465     0.09600
H707        H  0.49949219  0.74134415  0.32670454     0.10700
H708        H  0.55678917  0.71115732  0.32696722     0.16500
C709        C  0.82532807  0.93537903  0.99963398    -0.01700
C710        C  0.80671816  0.92532621  0.97428510     0.06900
C711        C  0.79120958  0.93461233  0.97103257    -0.07700
C712        C  0.79351624  0.95312188  0.99357839     0.04300
C713        C  0.81102066  0.96188193  0.02086926    -0.14900
C714        C  0.82714388  0.95323933  0.02283384    -0.08300
C715        C  0.80199393  0.90239773  0.45976481     0.05200
C716        C  0.78292506  0.88005701  0.46847142    -0.09400
C717        C  0.78055451  0.85930268  0.45254731     0.00200
C718        C  0.79783285  0.86078646  0.42797945     0.00100
C719        C  0.81615591  0.88335911  0.41785027    -0.12900
C720        C  0.81821641  0.90408045  0.43328795     0.00600
C721        C  0.76115759  0.83672932  0.46367545     0.39900
C722        C  0.83648549  0.92715491  0.91326859     0.36500
C723        C  0.84223355  0.92699962  0.00334838     0.36200
C724        C  0.77690188  0.96178931  0.98940515     0.37000
N725        N  0.74558090  0.81860380  0.47245670    -0.43800
N726        N  0.85119832  0.94515304  0.90239276    -0.44300
N727        N  0.76355594  0.96870624  0.98596278    -0.41600
N728        N  0.85589567  0.92042920  0.00610258    -0.43100
H729        H  0.84095438  0.96011004  0.04319503     0.13100
H730        H  0.78818838  0.93506199  0.44695080     0.09600
H731        H  0.77044119  0.87877854  0.48895411     0.10700
H732        H  0.82926223  0.88479279  0.39839598     0.16500
C733        C  0.77815697  0.90205351  0.21591106    -0.01700
C734        C  0.79671140  0.89669745  0.21210917     0.06900
C735        C  0.81534144  0.91019353  0.18857148    -0.07700
C736        C  0.81658290  0.92984818  0.17068656     0.04300
C737        C  0.79881056  0.93630548  0.17628158    -0.14900
C738        C  0.77926448  0.92166058  0.19791718    -0.08300
C739        C  0.79878392  0.87933096  0.23586087     0.05200
C740        C  0.79712132  0.85845039  0.22143556    -0.09400
C741        C  0.80038455  0.84247779  0.24331797     0.00200
C742        C  0.80567257  0.84753997  0.28034905     0.00100
C743        C  0.80740285  0.86867211  0.29429127    -0.12900
C744        C  0.80414591  0.88444227  0.27257547     0.00600
C745        C  0.79852737  0.82139706  0.22682597     0.39900
C746        C  0.80712579  0.90618486  0.28848969     0.36500
C747        C  0.75828610  0.88817535  0.23919079     0.36200
C748        C  0.83646822  0.94310251  0.14708959     0.37000
N749        N  0.79703353  0.80452401  0.21344289    -0.43800
N750        N  0.80951358  0.92358512  0.30124188    -0.44300
N751        N  0.85243528  0.95370083  0.12824435    -0.41600
N752        N  0.74242148  0.87708103  0.25796391    -0.43100
H753        H  0.76533551  0.92611758  0.20212297     0.13100
H754        H  0.82953662  0.90598946  0.18543295     0.09600
H755        H  0.79336323  0.85470343  0.19302780     0.10700
H756        H  0.81132083  0.87308995  0.32251694     0.16500
C757        C  0.77150344  0.07476084  0.19860398    -0.01700
C758        C  0.74914165  0.07152819  0.18849126     0.06900
C759        C  0.73806240  0.05790879  0.15763007    -0.07700
C760        C  0.74840448  0.04659213  0.13806964     0.04300
C761        C  0.77014823  0.04859405  0.14966157    -0.14900
C762        C  0.78168028  0.06330268  0.17944840    -0.08300
C763        C  0.73682400  0.08157508  0.21058769     0.05200
C764        C  0.74171975  0.10499248  0.20465043    -0.09400
C765        C  0.72991763  0.11471613  0.22414453     0.00200
C766        C  0.71264098  0.10091790  0.25008744     0.00100
C767        C  0.70868107  0.07789986  0.25738513    -0.12900
C768        C  0.72066480  0.06823769  0.23800576     0.00600
C769        C  0.73610173  0.13910912  0.21748006     0.39900
C770        C  0.71585066  0.04443438  0.24620394     0.36500
C771        C  0.78393927  0.08907138  0.22944946     0.36200
C772        C  0.73566742  0.03195874  0.10764790     0.37000
N773        N  0.74139793  0.15878474  0.21248826    -0.43800
N774        N  0.71210681  0.02538564  0.25281075    -0.44300
N775        N  0.72545466  0.02036183  0.08313802    -0.41600
N776        N  0.79393282  0.10058094  0.25414130    -0.43100
H777        H  0.79842000  0.06514833  0.18871712     0.13100
H778        H  0.72095398  0.05556877  0.14940182     0.09600
H779        H  0.75464770  0.11563827  0.18443676     0.10700
H780        H  0.69534833  0.06700713  0.27695105     0.16500
C781        C  0.68429617  0.94946610  0.07659592    -0.01700
C782        C  0.67969411  0.93204528  0.05007583     0.06900
C783        C  0.69691611  0.92535322  0.04328200    -0.07700
C784        C  0.71894730  0.93668255  0.06100701     0.04300
C785        C  0.72420663  0.95532616  0.08570276    -0.14900
C786        C  0.70638554  0.96091247  0.09417100    -0.08300
C787        C  0.65686381  0.92050194  0.02965796     0.05200
C788        C  0.65491471  0.93025193  0.49831635    -0.09400
C789        C  0.63295032  0.92119804  0.48036083     0.00200
C790        C  0.61248416  0.90187785  0.49516625     0.00100
C791        C  0.61496385  0.89141753  0.02545259    -0.12900
C792        C  0.63680184  0.90040731  0.04326978     0.00600
C793        C  0.63165649  0.93308015  0.44825367     0.39900
C794        C  0.63806687  0.88917504  0.07615729     0.36500
C795        C  0.66676286  0.95626771  0.08552448     0.36200
C796        C  0.73562530  0.92836511  0.05434274     0.37000
N797        N  0.63068404  0.94267093  0.42252975    -0.43800
N798        N  0.63908964  0.88016182  0.10250203    -0.44300
N799        N  0.74877192  0.92136551  0.04943049    -0.41600
N800        N  0.65025153  0.95367700  0.60569371    -0.43100
H801        H  0.71009902  0.97501136  0.11323240     0.13100
H802        H  0.69319824  0.91138460  0.02392314     0.09600
H803        H  0.67036512  0.94554878  0.48740630     0.10700
H804        H  0.59955251  0.87643353  0.03709589     0.16500
C805        C  0.52538799  0.13880075  0.18987264    -0.01700
C806        C  0.53737850  0.12661592  0.17852307     0.06900
C807        C  0.53178173  0.11524394  0.14502011    -0.07700
C808        C  0.51611939  0.11753806  0.12159805     0.04300
C809        C  0.50588459  0.13168981  0.13138698    -0.14900
C810        C  0.50979059  0.14134606  0.16619315    -0.08300
C811        C  0.55769266  0.12759019  0.19875252     0.05200
C812        C  0.55672959  0.10642694  0.21035431    -0.09400
C813        C  0.57679690  0.10641030  0.22484147     0.00200
C814        C  0.59850402  0.12800175  0.22771064     0.00100
C815        C  0.59908492  0.14917416  0.21676489    -0.12900
C816        C  0.57915362  0.14911730  0.20216057     0.00600
C817        C  0.57449366  0.08397404  0.23614600     0.39900
C818        C  0.58165652  0.17123583  0.18871444     0.36500
C819        C  0.52919411  0.14913276  0.22535825     0.36200
C820        C  0.51088570  0.10514507  0.08756963     0.37000
N821        N  0.57258804  0.06595608  0.24517163    -0.43800
N822        N  0.58370413  0.18895397  0.17788113    -0.44300
N823        N  0.50666439  0.09492953  0.06057119    -0.41600
N824        N  0.53220697  0.15730948  0.25388588    -0.43100
H825        H  0.50160404  0.15178100  0.17423478     0.13100
H826        H  0.54050350  0.10540119  0.13646315     0.09600
H827        H  0.54031182  0.08975403  0.20731823     0.10700
H828        H  0.61546946  0.16597992  0.21852463     0.16500
C829        C  0.59295326  0.11470920  0.42172565    -0.01700
C830        C  0.58596770  0.13229723  0.42354490     0.06900
C831        C  0.59912202  0.15358547  0.40460186    -0.07700
C832        C  0.61808324  0.15708915  0.38269580     0.04300
C833        C  0.62447530  0.13912849  0.37953502    -0.14900
C834        C  0.61218437  0.11830657  0.39996687    -0.08300
C835        C  0.56516550  0.12937548  0.44479814     0.05200
C836        C  0.56894410  0.14606678  0.47179460    -0.09400
C837        C  0.54992396  0.14647053  0.48899320     0.00200
C838        C  0.52634513  0.12953495  0.47987273     0.00100
C839        C  0.52253538  0.11210902  0.45401799    -0.12900
C840        C  0.54164366  0.11222782  0.43593110     0.00600
C841        C  0.55558422  0.16519893  0.01542874     0.39900
C842        C  0.53660110  0.09588612  0.40640879     0.36500
C843        C  0.58055796  0.09283101  0.44165426     0.36200
C844        C  0.63069728  0.17933914  0.36360703     0.37000
N845        N  0.55977456  0.18013561  0.03615605    -0.43800
N846        N  0.53256062  0.08290265  0.38257920    -0.44300
N847        N  0.64079067  0.19718457  0.34837974    -0.41600
N848        N  0.57050163  0.07525019  0.45753088    -0.43100
H849        H  0.61693376  0.10439934  0.39771853     0.13100
H850        H  0.59414861  0.16736909  0.40624763     0.09600
H851        H  0.58691719  0.15941021  0.47858571     0.10700
H852        H  0.50456867  0.09925494  0.44634911     0.16500
C853        C  0.48141627  0.20243784  0.39146683    -0.01700
C854        C  0.46685601  0.21238292  0.40021975     0.06900
C855        C  0.45186425  0.20368551  0.43005844    -0.07700
C856        C  0.45238071  0.18659500  0.45255262     0.04300
C857        C  0.46781064  0.17752467  0.44499342    -0.14900
C858        C  0.48168117  0.18497000  0.41378008    -0.08300
C859        C  0.46848469  0.23342941  0.38124996     0.05200
C860        C  0.44870803  0.23142807  0.36253933    -0.09400
C861        C  0.44885195  0.25149280  0.34754389     0.00200
C862        C  0.46909286  0.27418773  0.35146981     0.00100
C863        C  0.48891051  0.27596879  0.36994553    -0.12900
C864        C  0.48870496  0.25600327  0.38496217     0.00600
C865        C  0.42824110  0.24815790  0.32770371     0.39900
C866        C  0.50905507  0.25932734  0.40559637     0.36500
C867        C  0.49677729  0.21049877  0.36052369     0.36200
C868        C  0.43728567  0.17901285  0.48386125     0.37000
N869        N  0.41173824  0.24547514  0.31172286    -0.43800
N870        N  0.52534551  0.26200178  0.42216210    -0.44300
N871        N  0.42326982  0.17028740  0.00606730    -0.41600
N872        N  0.50916566  0.21704264  0.33580065    -0.43100
H873        H  0.49365250  0.17815340  0.40795239     0.13100
H874        H  0.44056837  0.21115166  0.43681683     0.09600
H875        H  0.43299659  0.21409560  0.35993149     0.10700
H876        H  0.50458184  0.29322845  0.37352370     0.16500
C877        C  0.45142235  0.21524848  0.14238604    -0.01700
C878        C  0.46868394  0.23841643  0.13205124     0.06900
C879        C  0.48387355  0.24107884  0.10342059    -0.07700
C880        C  0.48244870  0.22121053  0.08570664     0.04300
C881        C  0.46553031  0.19800404  0.09656090    -0.14900
C882        C  0.44977439  0.19534679  0.12435285    -0.08300
C883        C  0.47261833  0.25991779  0.15273109     0.05200
C884        C  0.49395452  0.27274522  0.17176234    -0.09400
C885        C  0.49777901  0.29174081  0.19424194     0.00200
C886        C  0.48020191  0.29858360  0.19761021     0.00100
C887        C  0.45939885  0.28666435  0.17695446    -0.12900
C888        C  0.45542728  0.26735851  0.15482759     0.00600
C889        C  0.51987358  0.30386321  0.21382929     0.39900
C890        C  0.43343560  0.25516814  0.13506968     0.36500
C891        C  0.43621048  0.21140976  0.17287362     0.36200
C892        C  0.49839773  0.22514142  0.05616491     0.37000
N893        N  0.53754258  0.31360101  0.22959620    -0.43800
N894        N  0.41575345  0.24525417  0.11938036    -0.44300
N895        N  0.51112301  0.22828269  0.03242685    -0.41600
N896        N  0.42407210  0.20841439  0.19735803    -0.43100
H897        H  0.43692148  0.17766700  0.13321299     0.13100
H898        H  0.49716652  0.25877248  0.09528730     0.09600
H899        H  0.50739206  0.26736301  0.16997950     0.10700
H900        H  0.44573753  0.29168589  0.17942868     0.16500
C901        C  0.31245179  0.05121746  0.42242129    -0.01700
C902        C  0.31657701  0.06934493  0.44752886     0.06900
C903        C  0.29854873  0.07504637  0.45357857    -0.07700
C904        C  0.27651096  0.06250575  0.43605057     0.04300
C905        C  0.27212462  0.04384051  0.41185357    -0.14900
C906        C  0.29043949  0.03872719  0.40482764    -0.08300
C907        C  0.33984811  0.08274395  0.46674984     0.05200
C908        C  0.36013425  0.09680949  0.44646599    -0.09400
C909        C  0.38276471  0.10724542  0.46199433     0.00200
C910        C  0.38599322  0.10315563  0.99898273     0.00100
C911        C  0.36550318  0.09108456  0.02020824    -0.12900
C912        C  0.34239688  0.08058414  0.50414721     0.00600
C913        C  0.40259106  0.12099112  0.43853699     0.39900
C914        C  0.32200159  0.06665270  0.52640701     0.36500
C915        C  0.33021524  0.04435190  0.41558585     0.36200
C916        C  0.25875552  0.06940179  0.44273795     0.37000
N917        N  0.41825256  0.13174904  0.41926257    -0.43800
N918        N  0.30561093  0.05550715  0.54421992    -0.44300
N919        N  0.24463130  0.07512176  0.44772938    -0.41600
N920        N  0.34383553  0.03754273  0.91122627    -0.43100
H921        H  0.28716148  0.02415043  0.38695021     0.13100
H922        H  0.30167986  0.08926955  0.47211080     0.09600
H923        H  0.35829723  0.09901600  0.41792905     0.10700
H924        H  0.36727451  0.08872744  0.04868703     0.16500
C925        C  0.18517069  0.07216177  0.48613991    -0.01700
C926        C  0.19950239  0.07664010  0.51681779     0.06900
C927        C  0.20879868  0.06112797  0.02661618    -0.07700
C928        C  0.20264395  0.04119524  0.50383358     0.04300
C929        C  0.18880119  0.03707911  0.47227566    -0.14900
C930        C  0.17989663  0.05258988  0.46442214    -0.08300
C931        C  0.20599572  0.09756821  0.04140827     0.05200
C932        C  0.18925943  0.09504361  0.06719623    -0.09400
C933        C  0.18997690  0.11498573  0.08316373     0.00200
C934        C  0.20793414  0.13809678  0.07352770     0.00100
C935        C  0.22591855  0.14047392  0.05002160    -0.12900
C936        C  0.22489205  0.12039382  0.03359077     0.00600
C937        C  0.17145465  0.11110501  0.10831423     0.39900
C938        C  0.24163639  0.12335141  0.50621009     0.36500
C939        C  0.17590396  0.08768604  0.47612825     0.36200
C940        C  0.21254029  0.02621190  0.51359718     0.37000
N941        N  0.15648173  0.10786858  0.12825975    -0.43800
N942        N  0.25580874  0.12591814  0.48513027    -0.44300
N943        N  0.22049305  0.01421334  0.52145400    -0.41600
N944        N  0.16851719  0.10015028  0.46816845    -0.43100
H945        H  0.16908112  0.04978851  0.44063942     0.13100
H946        H  0.21974997  0.06437614  0.05035798     0.09600
H947        H  0.17469298  0.07749531  0.07309439     0.10700
H948        H  0.23981315  0.15802982  0.04253633     0.16500
C949        C  0.17478163  0.08030414  0.29618716    -0.01700
C950        C  0.19639048  0.10114546  0.28983933     0.08700
C951        C  0.21757474  0.10215351  0.30113648    -0.07700
C952        C  0.21761807  0.08234391  0.31667578     0.04300
C953        C  0.19598775  0.06088151  0.32131961    -0.14900
C954        C  0.17472464  0.06057406  0.31194379    -0.08300
C955        C  0.19743689  0.12038195  0.26651362     0.05200
C956        C  0.18768778  0.13454916  0.27798953    -0.09400
C957        C  0.18665014  0.15123048  0.25465864     0.00200
C958        C  0.19531890  0.15367236  0.21922604     0.00100
C959        C  0.20529341  0.13965381  0.20822683    -0.12900
C960        C  0.20656441  0.12333007  0.23140102     0.00600
C961        C  0.17523974  0.16435924  0.26678294     0.39900
C962        C  0.21643036  0.10904176  0.21791834     0.36500
C963        C  0.15251109  0.07814546  0.28454048     0.36200
C964        C  0.24020163  0.08460289  0.32666412     0.37000
N965        N  0.16598126  0.17481150  0.27640269    -0.43800
N966        N  0.22437050  0.09761321  0.20721474    -0.44300
N967        N  0.25836432  0.08652228  0.33456343    -0.41600
N968        N  0.13465764  0.07636499  0.27513689    -0.43100
H969        H  0.15789277  0.04453165  0.31559749     0.13100
H970        H  0.23424377  0.11818675  0.29630088     0.09600
H971        H  0.18037214  0.13213486  0.30484716     0.10700
H972        H  0.21202079  0.14132912  0.18104953     0.16500
C973        C  0.43312766  0.84708570  0.05210506    -0.01700
C974        C  0.42970643  0.86702274  0.05051040     0.06900
C975        C  0.44694917  0.88784712  0.03385885    -0.07700
C976        C  0.46728733  0.88899340  0.01855391     0.04300
C977        C  0.47063660  0.86890581  0.01973507    -0.14900
C978        C  0.45322574  0.84809009  0.03649525    -0.08300
C979        C  0.40963656  0.86726358  0.06949029     0.05200
C980        C  0.41485374  0.88209138  0.09955242    -0.09400
C981        C  0.39679556  0.88066247  0.12162949     0.00200
C982        C  0.37288862  0.86439948  0.11345043     0.00100
C983        C  0.36746727  0.85070174  0.08199622    -0.12900
C984        C  0.38568355  0.85194030  0.06005413     0.00600
C985        C  0.40332557  0.89549934  0.15338688     0.39900
C986        C  0.37945416  0.83681459  0.02873604     0.36500
C987        C  0.41689338  0.82578917  0.07121206     0.36200
C988        C  0.48508343  0.91197633  0.50333497     0.37000
N989        N  0.40862427  0.90739424  0.17879309    -0.43800
N990        N  0.37447403  0.82459310  0.00373472    -0.44300
N991        N  0.49896455  0.92973205  0.49060051    -0.41600
N992        N  0.40391600  0.80874986  0.08656811    -0.43100
H993        H  0.45554817  0.83256153  0.03826900     0.13100
H994        H  0.44458969  0.90338412  0.03316184     0.09600
H995        H  0.43317056  0.89399359  0.10679824     0.10700
H996        H  0.34917011  0.83808602  0.07574388     0.16500
C997        C  0.42369168  0.85295572  0.26997716    -0.01700
C998        C  0.43896806  0.87121117  0.29347778     0.06900
C999        C  0.43541386  0.89076401  0.29890732    -0.07700
C1000       C  0.41591125  0.89146181  0.28338293     0.04300
C1001       C  0.39929655  0.87204975  0.26243386    -0.14900
C1002       C  0.40406031  0.85341583  0.25492208    -0.08300
C1003       C  0.45558342  0.86791061  0.31753635     0.05200
C1004       C  0.48014386  0.88026914  0.31157339    -0.09400
C1005       C  0.49580528  0.87744502  0.33494212     0.00200
C1006       C  0.48683445  0.86216018  0.36511271     0.00100
C1007       C  0.46215587  0.84963499  0.37033423    -0.12900
C1008       C  0.44668006  0.85238674  0.34710358     0.00600
C1009       C  0.52090052  0.89114274  0.32809991     0.39900
C1010       C  0.42160595  0.83949760  0.35470817     0.36500
C1011       C  0.42728554  0.83302170  0.26226914     0.36200
C1012       C  0.41270507  0.91159386  0.29133336     0.37000
N1013       N  0.54101846  0.90213833  0.32255112    -0.43800
N1014       N  0.40150531  0.82922365  0.36063917    -0.44300
N1015       N  0.41019729  0.92778401  0.29764171    -0.41600
N1016       N  0.43024590  0.81709744  0.25607818    -0.43100
H1017       H  0.39200302  0.83872416  0.23801518     0.13100
H1018       H  0.44714065  0.90487315  0.31695448     0.09600
H1019       H  0.48707542  0.89225433  0.28884596     0.10700
H1020       H  0.45478699  0.83776970  0.39311825     0.16500
C1021       C  0.26420010  0.94722585  0.33526807    -0.01700
C1022       C  0.25244986  0.93088079  0.30705093     0.06900
C1023       C  0.22872723  0.92401004  0.29970107    -0.07700
C1024       C  0.21708595  0.93413747  0.31830349     0.04300
C1025       C  0.22906335  0.95130515  0.34545366    -0.14900
C1026       C  0.25241202  0.95718239  0.35435643    -0.08300
C1027       C  0.26422632  0.92048242  0.28472923     0.05200
C1028       C  0.25644308  0.89608883  0.28753442    -0.09400
C1029       C  0.26698202  0.88547637  0.26724022     0.00200
C1030       C  0.28562140  0.89926663  0.24332511     0.00100
C1031       C  0.29249009  0.92339688  0.23889039    -0.12900
C1032       C  0.28197240  0.93407265  0.25935609     0.00600
C1033       C  0.25831622  0.86030052  0.27121215     0.39900
C1034       C  0.28963963  0.95894636  0.25394637     0.36500
C1035       C  0.28843701  0.95439513  0.34461905     0.36200
C1036       C  0.19292592  0.92697924  0.30834251     0.37000
N1037       N  0.25120093  0.84007656  0.27409088    -0.43800
N1038       N  0.29574065  0.97887583  0.24960501    -0.44300
N1039       N  0.17358431  0.92117509  0.30019906    -0.41600
N1040       N  0.30788632  0.96025761  0.35218145    -0.43100
H1041       H  0.26191442  0.97059568  0.37469590     0.13100
H1042       H  0.21948575  0.91120567  0.27850315     0.09600
H1043       H  0.24229690  0.88536071  0.30610497     0.10700
H1044       H  0.30685391  0.93416919  0.22068149     0.16500
C1045       C  0.43233246  0.03288578  0.13091570    -0.01700
C1046       C  0.41400976  0.01170674  0.11618502     0.06900
C1047       C  0.40600539  0.01219382  0.08107004    -0.07700
C1048       C  0.41521772  0.03349997  0.06138927     0.04300
C1049       C  0.43240836  0.05499299  0.07717389    -0.14900
C1050       C  0.44115014  0.05421338  0.11164341    -0.08300
C1051       C  0.40272402  0.98894896  0.13696295     0.05200
C1052       C  0.39034336  0.98722342  0.16892540    -0.09400
C1053       C  0.37768365  0.96542712  0.18718786     0.00200
C1054       C  0.37698197  0.94474127  0.17312009     0.00100
C1055       C  0.39028223  0.94686614  0.14205837    -0.12900
C1056       C  0.40324666  0.96863776  0.12434802     0.00600
C1057       C  0.36452151  0.96453979  0.21896831     0.39900
C1058       C  0.41716697  0.96979125  0.09337376     0.36500
C1059       C  0.44266198  0.03308837  0.16548089     0.36200
C1060       C  0.40591863  0.03295456  0.02586962     0.37000
N1061       N  0.35405945  0.96385959  0.24454349    -0.43800
N1062       N  0.42848627  0.97086123  0.06868272    -0.44300
N1063       N  0.39855624  0.03246557  0.99728859    -0.41600
N1064       N  0.45107829  0.03319998  0.19303972    -0.43100
H1065       H  0.45471523  0.07048130  0.12387649     0.13100
H1066       H  0.39212810  0.99594354  0.06930484     0.09600
H1067       H  0.38996023  0.00280867  0.17901501     0.10700
H1068       H  0.39018512  0.93125574  0.13103027     0.16500
C1069       C  0.92838371  0.77879490  0.26199563    -0.01700
C1070       C  0.91961589  0.79495191  0.26217742     0.06900
C1071       C  0.93114027  0.81584806  0.24190259    -0.07700
C1072       C  0.95029107  0.82022529  0.21999792     0.04300
C1073       C  0.95822305  0.80339360  0.21792537    -0.14900
C1074       C  0.94769117  0.78315996  0.23996953    -0.08300
C1075       C  0.89863962  0.79110917  0.28324478     0.05200
C1076       C  0.90205850  0.80724406  0.31081771    -0.09400
C1077       C  0.88285754  0.80789024  0.32661885     0.00200
C1078       C  0.85953199  0.79216319  0.31466810     0.00100
C1079       C  0.85598695  0.77481124  0.28884151    -0.12900
C1080       C  0.87535665  0.77429159  0.27286909     0.00600
C1081       C  0.88774954  0.82511121  0.35480900     0.39900
C1082       C  0.87098431  0.75741488  0.24437610     0.36500
C1083       C  0.91773230  0.75764277  0.28384439     0.36200
C1084       C  0.96147875  0.84216173  0.19983777     0.37000
N1085       N  0.89174120  0.83894386  0.37735717    -0.43800
N1086       N  0.86746267  0.74384175  0.22160211    -0.44300
N1087       N  0.97046606  0.85975753  0.18378478    -0.41600
N1088       N  0.90919420  0.74068839  0.30140266    -0.43100
H1089       H  0.95370525  0.77018512  0.23857642     0.13100
H1090       H  0.92479324  0.82858848  0.24265476     0.09600
H1091       H  0.91993678  0.82007443  0.31898160     0.10700
H1092       H  0.83818540  0.76251773  0.27968374     0.16500
C1093       C  0.90866199  0.81177377  0.04604936    -0.01700
C1094       C  0.88813586  0.78995402  0.03890456     0.06900
C1095       C  0.88786313  0.76870114  0.04806886    -0.07700
C1096       C  0.90795401  0.76891343  0.06290325     0.04300
C1097       C  0.92897397  0.79084195  0.06844942    -0.14900
C1098       C  0.92857449  0.81202822  0.06097039    -0.08300
C1099       C  0.86887407  0.78962303  0.51674564     0.05200
C1100       C  0.86561879  0.77962242  0.48235629    -0.09400
C1101       C  0.85156100  0.78281047  0.45683836     0.00200
C1102       C  0.84039184  0.79625730  0.46560556     0.00100
C1103       C  0.84191637  0.80448669  0.50099192    -0.12900
C1104       C  0.85566308  0.80044130  0.02658000     0.00600
C1105       C  0.84894668  0.77206363  0.42182667     0.39900
C1106       C  0.85694948  0.80920499  0.06270449     0.36500
C1107       C  0.91126322  0.83460986  0.53353362     0.36200
C1108       C  0.90648105  0.74639222  0.07137443     0.37000
N1109       N  0.84682717  0.76325570  0.39394800    -0.43800
N1110       N  0.85802308  0.81628304  0.09164172    -0.44300
N1111       N  0.90522021  0.72830714  0.07818598    -0.41600
N1112       N  0.91300850  0.85248310  0.52409334    -0.43100
H1113       H  0.94430880  0.82910424  0.06529259     0.13100
H1114       H  0.87212712  0.75184278  0.04239878     0.09600
H1115       H  0.87509751  0.77033699  0.47480164     0.10700
H1116       H  0.83297469  0.81436337  0.50815444     0.16500
C1117       C  0.08966952  0.90502553  0.43070416    -0.01700
C1118       C  0.09091123  0.89102728  0.45876460     0.06900
C1119       C  0.11319173  0.89587210  0.47192106    -0.07700
C1120       C  0.13407356  0.91523304  0.45887158     0.04300
C1121       C  0.13275307  0.93013660  0.43218561    -0.14900
C1122       C  0.11045169  0.92436669  0.41772370    -0.08300
C1123       C  0.06981862  0.87463045  0.97976489     0.05200
C1124       C  0.05914303  0.84957644  0.47367730    -0.09400
C1125       C  0.04046344  0.83394564  0.99570197     0.00200
C1126       C  0.03218733  0.84262429  0.02398043     0.00100
C1127       C  0.04187917  0.86732843  0.02795434    -0.12900
C1128       C  0.06045658  0.88323684  0.00628363     0.00600
C1129       C  0.03109382  0.80839710  0.49009182     0.39900
C1130       C  0.07045740  0.90839762  0.01295867     0.36500
C1131       C  0.06714686  0.90047004  0.41605475     0.36200
C1132       C  0.15631061  0.92054756  0.47546515     0.37000
N1133       N  0.02381590  0.78823710  0.48581541    -0.43800
N1134       N  0.07850438  0.92855310  0.01831074    -0.44300
N1135       N  0.17411554  0.92484323  0.48890912    -0.41600
N1136       N  0.04906474  0.89677272  0.40438599    -0.43100
H1137       H  0.10918543  0.93547711  0.39688167     0.13100
H1138       H  0.11416854  0.88531600  0.49391362     0.09600
H1139       H  0.06637391  0.84287811  0.45336442     0.10700
H1140       H  0.03553644  0.87432574  0.04916934     0.16500
C1141       C  0.11120801  0.91525134  0.27470157    -0.01700
C1142       C  0.11678584  0.91561273  0.23809442     0.06900
C1143       C  0.13754451  0.93510027  0.22480988    -0.07700
C1144       C  0.15287284  0.95387608  0.24774187     0.04300
C1145       C  0.14731752  0.95338706  0.28470234    -0.14900
C1146       C  0.12631192  0.93376023  0.29738229    -0.08300
C1147       C  0.10013581  0.89620037  0.21367184     0.05200
C1148       C  0.08534890  0.90050072  0.19098824    -0.09400
C1149       C  0.06610347  0.88177457  0.17322583     0.00200
C1150       C  0.06123830  0.85796541  0.17806638     0.00100
C1151       C  0.07715510  0.85396555  0.19884367    -0.12900
C1152       C  0.09638000  0.87279026  0.21665279     0.00600
C1153       C  0.05156169  0.88766839  0.15055356     0.39900
C1154       C  0.11158870  0.86763309  0.23896293     0.36500
C1155       C  0.08960694  0.89630108  0.28960391     0.36200
C1156       C  0.17384603  0.97335802  0.23246535     0.37000
N1157       N  0.03992319  0.89243242  0.13243688    -0.43800
N1158       N  0.12382639  0.86359940  0.25690575    -0.44300
N1159       N  0.19063666  0.98896421  0.22007660    -0.41600
N1160       N  0.07229990  0.88117769  0.30158505    -0.43100
H1161       H  0.12141508  0.93265560  0.32545252     0.13100
H1162       H  0.14175289  0.93563583  0.19651247     0.09600
H1163       H  0.08819738  0.91844508  0.18847060     0.10700
H1164       H  0.07400949  0.83600092  0.20255408     0.16500
C1165       C  0.10089582  0.73701653  0.03915540    -0.01700
C1166       C  0.08123797  0.73761052  0.02421312     0.06900
C1167       C  0.07364620  0.72865607  0.48956590    -0.07700
C1168       C  0.08382000  0.71677914  0.47127157     0.04300
C1169       C  0.10274057  0.71501282  0.48727964    -0.14900
C1170       C  0.11143556  0.72585330  0.02050793    -0.08300
C1171       C  0.06822246  0.74706887  0.04522279     0.05200
C1172       C  0.07398381  0.77084365  0.04086882    -0.09400
C1173       C  0.06198981  0.78027175  0.06032993     0.00200
C1174       C  0.04389770  0.76578896  0.08467768     0.00100
C1175       C  0.03882564  0.74225805  0.09009352    -0.12900
C1176       C  0.05080500  0.73282058  0.07051509     0.00600
C1177       C  0.06867694  0.80494546  0.05515467     0.39900
C1178       C  0.04448025  0.70826796  0.07590146     0.36500
C1179       C  0.10961663  0.74646455  0.07461865     0.36200
C1180       C  0.07321152  0.70491795  0.43783188     0.37000
N1181       N  0.07422093  0.82477932  0.05123947    -0.43800
N1182       N  0.04037172  0.68928672  0.57955298    -0.44300
N1183       N  0.06463683  0.69529984  0.41111136    -0.41600
N1184       N  0.11642017  0.75383873  0.10317203    -0.43100
H1185       H  0.12612091  0.72492775  0.03305650     0.13100
H1186       H  0.05852904  0.72919102  0.47793969     0.09600
H1187       H  0.08775290  0.78197584  0.02207944     0.10700
H1188       H  0.02465511  0.73089376  0.10816196     0.16500
C1189       C  0.18488394  0.73344634  0.10097023    -0.01700
C1190       C  0.20977638  0.74369067  0.09869567     0.06900
C1191       C  0.21933438  0.73425237  0.07410772    -0.07700
C1192       C  0.20485587  0.71568497  0.05103997     0.04300
C1193       C  0.17995285  0.70602998  0.05189902    -0.14900
C1194       C  0.17017331  0.71472404  0.07761773    -0.08300
C1195       C  0.22683005  0.76399273  0.12143548     0.05200
C1196       C  0.24275736  0.76057128  0.14282888    -0.09400
C1197       C  0.26258700  0.77976506  0.15841634     0.00200
C1198       C  0.26673955  0.80329259  0.15342581     0.00100
C1199       C  0.24986271  0.80656027  0.13392366    -0.12900
C1200       C  0.23025021  0.78724184  0.11753914     0.00600
C1201       C  0.27866224  0.77453320  0.17829423     0.39900
C1202       C  0.21492174  0.79194369  0.09476938     0.36500
C1203       C  0.17410492  0.74178527  0.12695137     0.36200
C1204       C  0.21622470  0.70695720  0.02666135     0.37000
N1205       N  0.29152138  0.77005544  0.19371644    -0.43800
N1206       N  0.20261730  0.79569365  0.07651137    -0.44300
N1207       N  0.22532731  0.70003189  0.00704487    -0.41600
N1208       N  0.16543505  0.74848627  0.14773248    -0.43100
H1209       H  0.15113471  0.70752505  0.07858885     0.13100
H1210       H  0.23840017  0.74174828  0.07253912     0.09600
H1211       H  0.24031182  0.74277856  0.14582011     0.10700
H1212       H  0.25266117  0.82437711  0.12973834     0.16500
C1213       C  0.23965623  0.75456094  0.39458647    -0.01700
C1214       C  0.23772131  0.77042200  0.37056740     0.06900
C1215       C  0.21517933  0.76755517  0.36304885    -0.07700
C1216       C  0.19465703  0.74852009  0.37769898     0.04300
C1217       C  0.19653464  0.73167328  0.39988149    -0.14900
C1218       C  0.21925059  0.73540347  0.40875284    -0.08300
C1219       C  0.25861524  0.78810297  0.34982804     0.05200
C1220       C  0.27026117  0.77963163  0.32746816    -0.09400
C1221       C  0.28903188  0.79506372  0.30562634     0.00200
C1222       C  0.29598329  0.81950118  0.30466504     0.00100
C1223       C  0.28528491  0.82829177  0.32850068    -0.12900
C1224       C  0.26676474  0.81278013  0.35117057     0.00600
C1225       C  0.30133172  0.78543829  0.28516752     0.39900
C1226       C  0.25657907  0.82251552  0.37584844     0.36500
C1227       C  0.26247534  0.75751443  0.40485401     0.36200
C1228       C  0.17199345  0.74617823  0.36804863     0.37000
N1229       N  0.31143653  0.77778500  0.26929707    -0.43800
N1230       N  0.24852190  0.83028445  0.39592400    -0.44300
N1231       N  0.15384095  0.74437791  0.36041587    -0.41600
N1232       N  0.28081673  0.75999749  0.41299315    -0.43100
H1233       H  0.22112044  0.72311030  0.42650982     0.13100
H1234       H  0.21354961  0.77964803  0.34455612     0.09600
H1235       H  0.26448300  0.76078485  0.32680388     0.10700
H1236       H  0.29068597  0.84704909  0.32836566     0.16500
C1237       C  0.89724403  0.62954172  0.19870551    -0.01700
C1238       C  0.91677008  0.65029480  0.21216800     0.06900
C1239       C  0.92549363  0.64971322  0.24664063    -0.07700
C1240       C  0.91558258  0.62862419  0.26709440     0.04300
C1241       C  0.89654187  0.60749626  0.25299652    -0.14900
C1242       C  0.88739464  0.60852087  0.21895067    -0.08300
C1243       C  0.92842702  0.67264647  0.19048746     0.05200
C1244       C  0.92063992  0.68936300  0.19395201    -0.09400
C1245       C  0.93200109  0.71113247  0.17552331     0.00200
C1246       C  0.95161379  0.71659156  0.15311088     0.00100
C1247       C  0.95858624  0.69932071  0.14809824    -0.12900
C1248       C  0.94718823  0.67750228  0.16656715     0.00600
C1249       C  0.92313159  0.72761436  0.17975748     0.39900
C1250       C  0.95550614  0.66064920  0.16148497     0.36500
C1251       C  0.88728934  0.62929079  0.16380546     0.36200
C1252       C  0.92614445  0.62891474  0.30146723     0.37000
N1253       N  0.91586413  0.74071740  0.18277257    -0.43800
N1254       N  0.96218083  0.64714095  0.15738826    -0.44300
N1255       N  0.93461557  0.62915862  0.32903669    -0.41600
N1256       N  0.87927591  0.62908337  0.13585255    -0.43100
H1257       H  0.87272650  0.59262251  0.20764686     0.13100
H1258       H  0.94043548  0.66567280  0.25726421     0.09600
H1259       H  0.90587893  0.68554283  0.21155569     0.10700
H1260       H  0.97374216  0.70336498  0.13124922     0.16500
C1261       C  0.77663899  0.50837556  0.18147241    -0.01700
C1262       C  0.78615734  0.52306364  0.15112485     0.06900
C1263       C  0.81067234  0.53440890  0.14529413    -0.07700
C1264       C  0.82584138  0.53189426  0.16987854     0.04300
C1265       C  0.81642337  0.51802515  0.20131506    -0.14900
C1266       C  0.79169399  0.50597548  0.20610404    -0.08300
C1267       C  0.77078733  0.52820978  0.12725983     0.05200
C1268       C  0.76998051  0.54928873  0.13272093    -0.09400
C1269       C  0.75287470  0.55313646  0.11542936     0.00200
C1270       C  0.73605946  0.53556480  0.09215308     0.00100
C1271       C  0.73813308  0.51526189  0.08473461    -0.12900
C1272       C  0.75521015  0.51144253  0.10218299     0.00600
C1273       C  0.75296876  0.57519993  0.12232609     0.39900
C1274       C  0.75590675  0.48981983  0.09495633     0.36500
C1275       C  0.75153030  0.49649961  0.18880804     0.36200
C1276       C  0.85097347  0.54475078  0.16298042     0.37000
N1277       N  0.75317525  0.59294880  0.12784577    -0.43800
N1278       N  0.75647485  0.47249481  0.08911382    -0.44300
N1279       N  0.87111081  0.55505023  0.15731550    -0.41600
N1280       N  0.73141911  0.48702002  0.19467460    -0.43100
H1281       H  0.78403685  0.49508439  0.22981064     0.13100
H1282       H  0.81801808  0.54576027  0.12194984     0.09600
H1283       H  0.78215731  0.56235243  0.15169847     0.10700
H1284       H  0.72558703  0.50167931  0.06674131     0.16500
C1285       C  0.75965701  0.51938043  0.35786781    -0.01700
C1286       C  0.76214362  0.53690421  0.38297417     0.06900
C1287       C  0.78504837  0.55539230  0.39105644    -0.07700
C1288       C  0.80522607  0.55600416  0.37588060     0.04300
C1289       C  0.80271479  0.53743336  0.35284348    -0.14900
C1290       C  0.77975529  0.51960089  0.34356679    -0.08300
C1291       C  0.74133814  0.53453427  0.40383249     0.05200
C1292       C  0.72781975  0.51352988  0.42322975    -0.09400
C1293       C  0.70865532  0.51030050  0.44442727     0.00200
C1294       C  0.70255537  0.52862225  0.44710355     0.00100
C1295       C  0.71597932  0.54960737  0.42721068    -0.12900
C1296       C  0.73519867  0.55270758  0.40588352     0.00600
C1297       C  0.69558809  0.48759594  0.96338677     0.39900
C1298       C  0.74833374  0.57471695  0.38648842     0.36500
C1299       C  0.73659245  0.50089272  0.34641893     0.36200
C1300       C  0.82822488  0.57518764  0.38596564     0.37000
N1301       N  0.68562796  0.46975385  0.97867055    -0.43800
N1302       N  0.75886674  0.59244380  0.37111639    -0.44300
N1303       N  0.84662131  0.59067667  0.39399649    -0.41600
N1304       N  0.71809198  0.48611838  0.33726386    -0.43100
H1305       H  0.77746710  0.50554209  0.32515771     0.13100
H1306       H  0.78725780  0.56893527  0.41044059     0.09600
H1307       H  0.73263624  0.49960275  0.42241162     0.10700
H1308       H  0.71190125  0.56401093  0.42900573     0.16500
C1309       C  0.96797554  0.56892589  0.38417992    -0.01700
C1310       C  0.98822493  0.58531129  0.36528780     0.06900
C1311       C  0.98592706  0.58959739  0.32878189    -0.07700
C1312       C  0.96355700  0.57896622  0.31176543     0.04300
C1313       C  0.94295191  0.56385084  0.33156477    -0.14900
C1314       C  0.94574168  0.55850018  0.36745072    -0.08300
C1315       C  0.01164202  0.59851236  0.38385877     0.05200
C1316       C  0.02928607  0.59247730  0.37676790    -0.09400
C1317       C  0.05125945  0.60411769  0.39451093     0.00200
C1318       C  0.05595105  0.62221921  0.41998011     0.00100
C1319       C  0.03808701  0.62789896  0.42764938    -0.12900
C1320       C  0.01613577  0.61632418  0.40971232     0.00600
C1321       C  0.06866823  0.59693967  0.38653185     0.39900
C1322       C  0.99874261  0.62358572  0.41723050     0.36500
C1323       C  0.96963189  0.56275023  0.42101560     0.36200
C1324       C  0.96221944  0.58470584  0.27462094     0.37000
N1325       N  0.08237930  0.58997246  0.88185265    -0.43800
N1326       N  0.98475770  0.62937068  0.42310856    -0.44300
N1327       N  0.96112083  0.58919750  0.24477772    -0.41600
N1328       N  0.97112443  0.55786317  0.45049713    -0.43100
H1329       H  0.93032695  0.54648451  0.38301297     0.13100
H1330       H  0.00156131  0.60186463  0.31386870     0.09600
H1331       H  0.02583874  0.57857261  0.35741745     0.10700
H1332       H  0.04167152  0.64216112  0.44638697     0.16500
C1333       C  0.74970218  0.23765200  0.35152322    -0.01700
C1334       C  0.76505938  0.23555969  0.37638837     0.06900
C1335       C  0.76186087  0.21287549  0.38420505    -0.07700
C1336       C  0.74326990  0.19237971  0.36852565     0.04300
C1337       C  0.72748426  0.19441546  0.34425669    -0.14900
C1338       C  0.73125138  0.21726006  0.33570411    -0.08300
C1339       C  0.78277290  0.25641504  0.39742965     0.05200
C1340       C  0.77448488  0.26750088  0.42126943    -0.09400
C1341       C  0.78998090  0.28547632  0.44453025     0.00200
C1342       C  0.81448168  0.29285817  0.44419708     0.00100
C1343       C  0.82303583  0.28293725  0.41858091    -0.12900
C1344       C  0.80734606  0.26454318  0.39568528     0.00600
C1345       C  0.78015890  0.29588461  0.46875251     0.39900
C1346       C  0.81671956  0.25388134  0.37121407     0.36500
C1347       C  0.75235002  0.26054858  0.34217647     0.36200
C1348       C  0.73987866  0.16953408  0.37984130     0.37000
N1349       N  0.77315185  0.30542805  0.98615558    -0.43800
N1350       N  0.82415272  0.24521749  0.35164665    -0.44300
N1351       N  0.73712508  0.15123901  0.38912537    -0.41600
N1352       N  0.75443135  0.27888966  0.33476333    -0.43100
H1353       H  0.71944949  0.21921639  0.31694067     0.13100
H1354       H  0.77333735  0.21111035  0.40383820     0.09600
H1355       H  0.75565167  0.26149478  0.42256653     0.10700
H1356       H  0.84179052  0.28855827  0.41787456     0.16500
C1357       C  0.75966311  0.23881254  0.09462699    -0.01700
C1358       C  0.76152624  0.22560869  0.12334008     0.06900
C1359       C  0.78399730  0.23148026  0.13687607    -0.07700
C1360       C  0.80445787  0.25109392  0.12351128     0.04300
C1361       C  0.80249996  0.26517626  0.09606430    -0.14900
C1362       C  0.78005557  0.25842035  0.08126174    -0.08300
C1363       C  0.74042171  0.20930640  0.14454092     0.05200
C1364       C  0.72768906  0.18492690  0.13658927    -0.09400
C1365       C  0.70883837  0.16924988  0.15867089     0.00200
C1366       C  0.70269989  0.17812837  0.18928517     0.00100
C1367       C  0.71484877  0.20279281  0.19565735    -0.12900
C1368       C  0.73355941  0.21823995  0.17390954     0.00600
C1369       C  0.69729605  0.14416760  0.15062995     0.39900
C1370       C  0.74612532  0.24320574  0.18308532     0.36500
C1371       C  0.73686985  0.23334074  0.07996547     0.36200
C1372       C  0.82684337  0.25760197  0.14069268     0.37000
N1373       N  0.68813442  0.12405225  0.14420970    -0.43800
N1374       N  0.75629694  0.26318635  0.19044974    -0.44300
N1375       N  0.84475781  0.26288248  0.15462794    -0.41600
N1376       N  0.71857688  0.22890642  0.06825729    -0.43100
H1377       H  0.77835772  0.26896019  0.05988651     0.13100
H1378       H  0.78538264  0.22161266  0.15953124     0.09600
H1379       H  0.73294088  0.17808195  0.11382044     0.10700
H1380       H  0.71026548  0.21010563  0.21860242     0.16500
C1381       C  0.84802387  0.42295193  0.23749515    -0.01700
C1382       C  0.86460065  0.42584108  0.21074257     0.06900
C1383       C  0.88313013  0.44875749  0.20329001    -0.07700
C1384       C  0.88454362  0.46879686  0.22051701     0.04300
C1385       C  0.86692012  0.46609490  0.24551360    -0.14900
C1386       C  0.84917753  0.44294301  0.25438643    -0.08300
C1387       C  0.86105103  0.40574981  0.18695921     0.05200
C1388       C  0.84270337  0.39749060  0.16152860    -0.09400
C1389       C  0.83955624  0.38003781  0.13634976     0.00200
C1390       C  0.85479811  0.37005014  0.13658287     0.00100
C1391       C  0.87269124  0.37776039  0.16297375    -0.12900
C1392       C  0.87607818  0.39566772  0.18774889     0.00600
C1393       C  0.82054180  0.37288877  0.11049831     0.39900
C1394       C  0.89520485  0.40363715  0.21345414     0.36500
C1395       C  0.82957162  0.39959579  0.24774544     0.36200
C1396       C  0.90335998  0.49192205  0.21013352     0.37000
N1397       N  0.80538820  0.36731811  0.08970024    -0.43800
N1398       N  0.91056682  0.41006315  0.23404909    -0.44300
N1399       N  0.91845735  0.51046544  0.20184288    -0.41600
N1400       N  0.81492885  0.38084153  0.25612461    -0.43100
H1401       H  0.83582338  0.44045092  0.27408259     0.13100
H1402       H  0.89592239  0.45108372  0.18268555     0.09600
H1403       H  0.83112190  0.40522218  0.16076378     0.10700
H1404       H  0.88466166  0.37049456  0.16333869     0.16500
C1405       C  0.85354026  0.46882555  0.45239579    -0.01700
C1406       C  0.86945245  0.46042771  0.44371879     0.06900
C1407       C  0.88403582  0.46977525  0.41353439    -0.07700
C1408       C  0.88170137  0.48565815  0.39059523     0.04300
C1409       C  0.86462867  0.49271643  0.39775492    -0.14900
C1410       C  0.85132451  0.48498212  0.42946753    -0.08300
C1411       C  0.86829797  0.43910759  0.46131509     0.05200
C1412       C  0.84674262  0.41784095  0.46000411    -0.09400
C1413       C  0.84493507  0.39642535  0.47155776     0.00200
C1414       C  0.86527099  0.39573015  0.48448514     0.00100
C1415       C  0.88689505  0.41717725  0.48620719    -0.12900
C1416       C  0.88851304  0.43873466  0.47494304     0.00600
C1417       C  0.82190619  0.37549648  0.46859341     0.39900
C1418       C  0.91099427  0.46028847  0.47799381     0.36500
C1419       C  0.83853260  0.46021252  0.48369426     0.36200
C1420       C  0.89614242  0.49339173  0.35860376     0.37000
N1421       N  0.80335870  0.35887223  0.46623792    -0.43800
N1422       N  0.92899067  0.47759819  0.48047335    -0.44300
N1423       N  0.90773045  0.49944509  0.33300166    -0.41600
N1424       N  0.82644710  0.45317887  0.50870386    -0.43100
H1425       H  0.83811994  0.49025325  0.43504307     0.13100
H1426       H  0.89612109  0.46333322  0.40636074     0.09600
H1427       H  0.83124742  0.41781999  0.44872438     0.10700
H1428       H  0.90256938  0.41717601  0.49659278     0.16500
C1429       C  0.94966060  0.26548421  0.42992335    -0.01700
C1430       C  0.92955185  0.25023542  0.45045647     0.06900
C1431       C  0.92136908  0.22564715  0.44925226    -0.07700
C1432       C  0.93367739  0.21643270  0.42970869     0.04300
C1433       C  0.95433818  0.23183825  0.41041608    -0.14900
C1434       C  0.96198141  0.25626883  0.41067292    -0.08300
C1435       C  0.91706198  0.25983009  0.47316561     0.05200
C1436       C  0.89381437  0.25421175  0.46432491    -0.09400
C1437       C  0.88276397  0.26548662  0.48176450     0.00200
C1438       C  0.89549634  0.28310691  0.00944587     0.00100
C1439       C  0.91792475  0.28729275  0.02072211    -0.12900
C1440       C  0.92912332  0.27605686  0.00354153     0.00600
C1441       C  0.85856919  0.25846901  0.47238083     0.39900
C1442       C  0.95214043  0.28089376  0.01628312     0.36500
C1443       C  0.95813720  0.29074480  0.42849293     0.36200
C1444       C  0.92525400  0.19118214  0.43060123     0.37000
N1445       N  0.83901970  0.25243107  0.46530139    -0.43800
N1446       N  0.97056484  0.28470716  0.02654523    -0.44300
N1447       N  0.91858695  0.17095630  0.43118763    -0.41600
N1448       N  0.96485844  0.31097348  0.42743062    -0.43100
H1449       H  0.97837541  0.26838140  0.39749820     0.13100
H1450       H  0.90577910  0.21371899  0.46449890     0.09600
H1451       H  0.88456366  0.24157823  0.44292764     0.10700
H1452       H  0.92725467  0.30028306  0.04166097     0.16500
C1453       C  0.08713931  0.20760738  0.27476115    -0.01700
C1454       C  0.08393208  0.20592729  0.23713400     0.06900
C1455       C  0.06177585  0.20088347  0.22288659    -0.07700
C1456       C  0.04299566  0.19755221  0.24556605     0.04300
C1457       C  0.04636324  0.19946706  0.28325422    -0.14900
C1458       C  0.06872054  0.20486943  0.29713807    -0.08300
C1459       C  0.10282456  0.20707615  0.21302044     0.05200
C1460       C  0.09834666  0.18679211  0.19326286    -0.09400
C1461       C  0.11666040  0.18539650  0.17540995     0.00200
C1462       C  0.14022728  0.20447778  0.17778123     0.00100
C1463       C  0.14424428  0.22552305  0.19503290    -0.12900
C1464       C  0.12579393  0.22702363  0.21226963     0.00600
C1465       C  0.11059922  0.16415375  0.15488010     0.39900
C1466       C  0.13097228  0.24906558  0.22964483     0.36500
C1467       C  0.10864604  0.21058727  0.29138983     0.36200
C1468       C  0.02022414  0.19077232  0.22960791     0.37000
N1469       N  0.10568688  0.14718408  0.13827027    -0.43800
N1470       N  0.13519674  0.26673990  0.24360884    -0.44300
N1471       N  0.00193207  0.18515662  0.21673847    -0.41600
N1472       N  0.12582454  0.21290343  0.30473804    -0.43100
H1473       H  0.07176354  0.20639411  0.32596195     0.13100
H1474       H  0.05899137  0.19897348  0.19403401     0.09600
H1475       H  0.08062662  0.17160620  0.19294498     0.10700
H1476       H  0.16199614  0.24061100  0.19622856     0.16500
C1477       C  0.15100429  0.21995021  0.48605816    -0.01700
C1478       C  0.12649609  0.19919051  0.98343377     0.06900
C1479       C  0.12020832  0.17713298  0.99913715    -0.07700
C1480       C  0.13640359  0.17398321  0.02018520     0.04300
C1481       C  0.15955510  0.19307269  0.02563580    -0.14900
C1482       C  0.16648265  0.21462475  0.00772727    -0.08300
C1483       C  0.10866832  0.20489967  0.46351526     0.05200
C1484       C  0.09643882  0.18966897  0.43479153    -0.09400
C1485       C  0.07654368  0.18940590  0.41938851     0.00200
C1486       C  0.06871975  0.20506321  0.43213545     0.00100
C1487       C  0.08158233  0.22109005  0.45981262    -0.12900
C1488       C  0.10106060  0.22075415  0.47607504     0.00600
C1489       C  0.06428754  0.17252509  0.39090064     0.39900
C1490       C  0.11019872  0.23186715  0.01011733     0.36500
C1491       C  0.15911137  0.24256441  0.46856890     0.36200
C1492       C  0.12862160  0.15119017  0.03709693     0.37000
N1493       N  0.05445349  0.15884010  0.36827111    -0.43800
N1494       N  0.11828737  0.24289157  0.03601218    -0.44300
N1495       N  0.12247013  0.13298463  0.05074023    -0.41600
N1496       N  0.16539084  0.26062632  0.45440861    -0.43100
H1497       H  0.18490502  0.23089287  0.51144920     0.13100
H1498       H  0.10222266  0.16258566  0.99623443     0.09600
H1499       H  0.10199735  0.17729382  0.42518769     0.10700
H1500       H  0.07552294  0.23287209  0.47027387     0.16500
C1501       C  0.88346169  0.09902192  0.02185152    -0.01700
C1502       C  0.90621528  0.10361240  0.03267737     0.06900
C1503       C  0.90842461  0.08973984  0.05970336    -0.07700
C1504       C  0.88834589  0.07068629  0.07479074     0.04300
C1505       C  0.86541567  0.06524761  0.06275167    -0.14900
C1506       C  0.86326225  0.08007182  0.03715187    -0.08300
C1507       C  0.92790462  0.12128518  0.51509617     0.05200
C1508       C  0.93676425  0.14534456  0.01809467    -0.09400
C1509       C  0.95550406  0.16215233  0.49764210     0.00200
C1510       C  0.96478748  0.15376126  0.47042279     0.00100
C1511       C  0.95626606  0.12917900  0.46737839    -0.12900
C1512       C  0.93806575  0.11301439  0.48936135     0.00600
C1513       C  0.96337075  0.18714050  0.50208494     0.39900
C1514       C  0.92924334  0.08791645  0.48372813     0.36500
C1515       C  0.88043585  0.11101688  0.49343180     0.36200
C1516       C  0.89194188  0.05695080  0.10233363     0.37000
N1517       N  0.96921371  0.20678123  0.00547105    -0.43800
N1518       N  0.92216143  0.06781509  0.47917140    -0.44300
N1519       N  0.89502773  0.04606454  0.12435049    -0.41600
N1520       N  0.87796206  0.12098972  0.46938897    -0.43100
H1521       H  0.84585801  0.07606964  0.02762427     0.13100
H1522       H  0.92592881  0.09331219  0.06808351     0.09600
H1523       H  0.92873401  0.15148398  0.03794082     0.10700
H1524       H  0.96334657  0.12245784  0.44685741     0.16500
C1525       C  0.92457050  0.10012178  0.28214481    -0.01700
C1526       C  0.90257197  0.09924508  0.27749671     0.06900
C1527       C  0.89939904  0.11764263  0.29164900    -0.07700
C1528       C  0.91797454  0.13707982  0.30955750     0.04300
C1529       C  0.94041945  0.13842752  0.31330375    -0.14900
C1530       C  0.94311626  0.11944194  0.29993163    -0.08300
C1531       C  0.88387399  0.08078238  0.25418322     0.05200
C1532       C  0.86627970  0.05928819  0.26891561    -0.09400
C1533       C  0.84969244  0.04095367  0.24660809     0.00200
C1534       C  0.85073267  0.04405301  0.20885326     0.00100
C1535       C  0.86803800  0.06596678  0.19463550    -0.12900
C1536       C  0.88446478  0.08408040  0.21673012     0.00600
C1537       C  0.83261155  0.01892083  0.26299031     0.39900
C1538       C  0.90221703  0.10577388  0.20020445     0.36500
C1539       C  0.92874612  0.08170912  0.26777407     0.36200
C1540       C  0.91334384  0.15523218  0.32369525     0.37000
N1541       N  0.81892616  0.00124568  0.27616470    -0.43800
N1542       N  0.91646290  0.12311787  0.18693314    -0.44300
N1543       N  0.90955327  0.16972938  0.33505907    -0.41600
N1544       N  0.93208232  0.06696334  0.25620375    -0.43100
H1545       H  0.95999886  0.11987745  0.30250156     0.13100
H1546       H  0.88252602  0.11708266  0.28792012     0.09600
H1547       H  0.86586096  0.05664328  0.29775498     0.10700
H1548       H  0.86898312  0.06897548  0.16583822     0.16500
C1549       C  0.03080279  0.43235080  0.11179127    -0.01700
C1550       C  0.01039125  0.41302443  0.12630838     0.06900
C1551       C  0.01203416  0.40403473  0.16005092    -0.07700
C1552       C  0.03372555  0.41346807  0.17871096     0.04300
C1553       C  0.05436330  0.43239409  0.16366662    -0.14900
C1554       C  0.05241588  0.44181879  0.13041744    -0.08300
C1555       C  0.98720494  0.40175877  0.10673929     0.05200
C1556       C  0.98438158  0.38856810  0.07517863    -0.09400
C1557       C  0.96215329  0.37592089  0.05804903     0.00200
C1558       C  0.94222618  0.37650829  0.07243816     0.00100
C1559       C  0.94549242  0.39062874  0.10311369    -0.12900
C1560       C  0.96758151  0.40309411  0.12018968     0.00600
C1561       C  0.96003569  0.36120654  0.02746937     0.39900
C1562       C  0.96964801  0.41701993  0.15175834     0.36500
C1563       C  0.02998565  0.44288113  0.07792523     0.36200
C1564       C  0.03455823  0.40241103  0.21202341     0.37000
N1565       N  0.95796893  0.34764739  0.50431600    -0.43800
N1566       N  0.97132024  0.42819851  0.17704780    -0.44300
N1567       N  0.03527186  0.39352162  0.23868667    -0.41600
N1568       N  0.02938299  0.45140522  0.05083245    -0.43100
H1569       H  0.06798999  0.45647520  0.11859246     0.13100
H1570       H  0.99641141  0.38917523  0.17140201     0.09600
H1571       H  0.99939998  0.38742403  0.06469247     0.10700
H1572       H  0.93049658  0.39143719  0.11448172     0.16500
C1573       C  0.08288938  0.30996827  0.31653775    -0.01700
C1574       C  0.07197714  0.32260485  0.30249411     0.06900
C1575       C  0.04786666  0.31409747  0.30918591    -0.07700
C1576       C  0.03443301  0.29304658  0.32839363     0.04300
C1577       C  0.04526976  0.28043164  0.34274936    -0.14900
C1578       C  0.06955702  0.28918022  0.33680282    -0.08300
C1579       C  0.08489210  0.34452834  0.28027040     0.05200
C1580       C  0.07733265  0.34466103  0.24472879    -0.09400
C1581       C  0.08629454  0.36589204  0.22488605     0.00200
C1582       C  0.10302453  0.38756002  0.24079615     0.00100
C1583       C  0.11174465  0.38698563  0.27540790    -0.12900
C1584       C  0.10273150  0.36591159  0.29521754     0.00600
C1585       C  0.07684256  0.36510774  0.18941090     0.39900
C1586       C  0.11076283  0.36712679  0.33185191     0.36500
C1587       C  0.10722726  0.31705173  0.30836445     0.36200
C1588       C  0.00917440  0.28385575  0.33029680     0.37000
N1589       N  0.06929913  0.36445475  0.16091397    -0.43800
N1590       N  0.11722505  0.36817571  0.36120032    -0.44300
N1591       N  0.98893623  0.27670395  0.33062417    -0.41600
N1592       N  0.12670963  0.32269093  0.30161500    -0.43100
H1593       H  0.07777688  0.27900591  0.34614491     0.13100
H1594       H  0.03929876  0.32357063  0.29824623     0.09600
H1595       H  0.06365888  0.32826337  0.23302228     0.10700
H1596       H  0.12481917  0.40339268  0.28797131     0.16500
C1597       C  0.20136000  0.45155058  0.31102261    -0.01700
C1598       C  0.20427586  0.45943603  0.34702001     0.06900
C1599       C  0.19055807  0.46935032  0.35986957    -0.07700
C1600       C  0.17479866  0.47227150  0.33701487     0.04300
C1601       C  0.17297912  0.46553079  0.30057688    -0.14900
C1602       C  0.18577037  0.45451013  0.28843661    -0.08300
C1603       C  0.22369565  0.46032856  0.36971685     0.05200
C1604       C  0.24245624  0.48263871  0.37925932    -0.09400
C1605       C  0.26285890  0.48491892  0.39604756     0.00200
C1606       C  0.26494950  0.46439507  0.40342279     0.00100
C1607       C  0.24548138  0.44194859  0.39546969    -0.12900
C1608       C  0.22497246  0.43979090  0.37901011     0.00600
C1609       C  0.28135283  0.50871397  0.40447373     0.39900
C1610       C  0.20551571  0.41633828  0.37163295     0.36500
C1611       C  0.21535977  0.44192461  0.29567298     0.36200
C1612       C  0.16197802  0.48357046  0.35087729     0.37000
N1613       N  0.29604679  0.52783504  0.41120257    -0.43800
N1614       N  0.18991846  0.39756527  0.36558398    -0.44300
N1615       N  0.15165656  0.49259872  0.36198140    -0.41600
N1616       N  0.22643717  0.43411302  0.28320916    -0.43100
H1617       H  0.18431400  0.44902476  0.26049739     0.13100
H1618       H  0.19281973  0.47558909  0.38745303     0.09600
H1619       H  0.24149478  0.49848591  0.37237506     0.10700
H1620       H  0.24635635  0.42597203  0.40156417     0.16500
C1621       C  0.21341556  0.44383333  0.11676795    -0.01700
C1622       C  0.23632683  0.46101488  0.12813448     0.06900
C1623       C  0.23871584  0.47700968  0.15548072    -0.07700
C1624       C  0.21881772  0.47713166  0.16984101     0.04300
C1625       C  0.19598744  0.46117933  0.15639620    -0.14900
C1626       C  0.19348622  0.44394188  0.13112755    -0.08300
C1627       C  0.25767524  0.46542845  0.10747296     0.05200
C1628       C  0.26878611  0.48629004  0.08703329    -0.09400
C1629       C  0.28668316  0.49007917  0.06275155     0.00200
C1630       C  0.29393300  0.47281958  0.05874848     0.00100
C1631       C  0.28418265  0.45281076  0.08128315    -0.12900
C1632       C  0.26599175  0.44892035  0.10544493     0.00600
C1633       C  0.29704623  0.51169015  0.04179804     0.39900
C1634       C  0.25570929  0.42766660  0.12709450     0.36500
C1635       C  0.20994344  0.42708022  0.08850743     0.36200
C1636       C  0.22235434  0.49378561  0.19832925     0.37000
N1637       N  0.31151995  0.53186068  0.53182474    -0.43800
N1638       N  0.24743254  0.41058687  0.14438302    -0.44300
N1639       N  0.22527819  0.50705499  0.22131218    -0.41600
N1640       N  0.20710625  0.41357806  0.06594596    -0.43100
H1641       H  0.17602080  0.43142309  0.12095957     0.13100
H1642       H  0.25628613  0.49010604  0.16454088     0.09600
H1643       H  0.26269744  0.49920494  0.08889771     0.10700
H1644       H  0.28976062  0.43955698  0.07851478     0.16500
C1645       C  0.15007470  0.55262922  0.09393749    -0.01700
C1646       C  0.13357449  0.54394395  0.06551564     0.06900
C1647       C  0.12143163  0.51943351  0.05822296    -0.07700
C1648       C  0.12503819  0.50350123  0.07978190     0.04300
C1649       C  0.14086177  0.51218855  0.10936819    -0.14900
C1650       C  0.15361661  0.53689305  0.11530452    -0.08300
C1651       C  0.12965898  0.56080491  0.04320360     0.05200
C1652       C  0.14740907  0.57519290  0.01898333    -0.09400
C1653       C  0.14774621  0.59509072  0.00349280     0.00200
C1654       C  0.12979090  0.60084493  0.01184648     0.00100
C1655       C  0.11102023  0.58536140  0.03417193    -0.12900
C1656       C  0.11100247  0.56560201  0.05019856     0.00600
C1657       C  0.16724736  0.60961452  0.97996286     0.39900
C1658       C  0.09259275  0.55140047  0.07552219     0.36500
C1659       C  0.16311501  0.57768467  0.10244310     0.36200
C1660       C  0.11175823  0.47845930  0.07162667     0.37000
N1661       N  0.18303462  0.62131468  0.96141487    -0.43800
N1662       N  0.07791348  0.53999667  0.09591758    -0.44300
N1663       N  0.10118007  0.45839718  0.06486913    -0.41600
N1664       N  0.17353462  0.59774745  0.10922848    -0.43100
H1665       H  0.16604992  0.54403113  0.13752182     0.13100
H1666       H  0.10900029  0.51276694  0.03597864     0.09600
H1667       H  0.16182227  0.57158891  0.01373819     0.10700
H1668       H  0.09708950  0.58942771  0.04076019     0.16500
C1669       C  0.14420297  0.59013333  0.34995253    -0.01700
C1670       C  0.13422046  0.58815542  0.31565365     0.06900
C1671       C  0.12808680  0.60521159  0.30446551    -0.07700
C1672       C  0.13132050  0.62391073  0.32748137     0.04300
C1673       C  0.14106984  0.62575631  0.36231936    -0.14900
C1674       C  0.14761088  0.60872855  0.37266494    -0.08300
C1675       C  0.13042423  0.56823434  0.29167254     0.05200
C1676       C  0.11082485  0.54571320  0.29769269    -0.09400
C1677       C  0.10927904  0.52536959  0.28145812     0.00200
C1678       C  0.12778096  0.52748232  0.25894543     0.00100
C1679       C  0.14664282  0.55029341  0.25133919    -0.12900
C1680       C  0.14808662  0.57055305  0.26745720     0.00600
C1681       C  0.08950132  0.50253257  0.29063792     0.39900
C1682       C  0.16856099  0.59337771  0.26049179     0.36500
C1683       C  0.15093809  0.57308400  0.36260377     0.36200
C1684       C  0.12383342  0.64034564  0.31490688     0.37000
N1685       N  0.07364218  0.48423637  0.29805089    -0.43800
N1686       N  0.18498423  0.61166062  0.25490828    -0.44300
N1687       N  0.11775346  0.65345463  0.30471762    -0.41600
N1688       N  0.15627668  0.55940170  0.37274591    -0.43100
H1689       H  0.15514846  0.60956976  0.39903527     0.13100
H1690       H  0.12047642  0.60371126  0.27791969     0.09600
H1691       H  0.09734712  0.54390000  0.31669943     0.10700
H1692       H  0.16081356  0.55225080  0.23369250     0.16500
O1693       O  0.14746641  0.50524587  0.66741938    -0.85100
O1694       O  0.14911736  0.50819883  0.74104048    -0.82100
C1695       C  0.12898353  0.50641841  0.74485038     0.98400
O1696       O  0.11082797  0.48690218  0.73809147    -0.82100
O1697       O  0.08179052  0.44144018  0.71184471    -0.84800
C1698       C  0.07784913  0.44045368  0.67820551     1.02900
O1699       O  0.09425396  0.44569405  0.65605534    -0.77600
O1700       O  0.13756993  0.47524195  0.62997294    -0.77700
C1701       C  0.14151743  0.49637578  0.63634024     1.02900
O1702       O  0.17618713  0.48358579  0.66845170    -0.85100
O1703       O  0.17016801  0.47853487  0.74131578    -0.82100
C1704       C  0.16007578  0.47153956  0.77126936     0.98400
O1705       O  0.13973616  0.46959153  0.77667446    -0.82200
O1706       O  0.11230904  0.42705848  0.74741325    -0.84800
C1707       C  0.10888763  0.41121129  0.72491963     1.02900
O1708       O  0.10968964  0.41529806  0.69130034    -0.77600
O1709       O  0.15450666  0.44524583  0.66726097    -0.77700
C1710       C  0.17440420  0.46346134  0.66409667     1.02800
Cr1711     Cr  0.15868375  0.49188027  0.70448724     1.93700
Cr1712     Cr  0.11247418  0.45699346  0.74050860     1.93200
Cr1713     Cr  0.12462995  0.44672000  0.66408078     1.39100
O1714       O  0.13152500  0.46491193  0.70284374    -1.22800
O1715       O  0.97859874  0.16114468  0.91004944    -0.85100
O1716       O  0.97971770  0.15886410  0.83592897    -0.82100
C1717       C  0.96158132  0.16085362  0.83013918     0.98400
O1718       O  0.96265111  0.18046130  0.83669511    -0.82100
O1719       O  0.97679060  0.22523707  0.86459846    -0.84800
C1720       C  0.97266526  0.22550078  0.89797418     1.02900
O1721       O  0.98322823  0.21995854  0.92117122    -0.77600
O1722       O  0.99777708  0.19055105  0.94858866    -0.77700
C1723       C  0.98124990  0.16953391  0.94144256     1.02900
O1724       O  0.02845009  0.18243557  0.91296557    -0.85100
O1725       O  0.02956882  0.18791487  0.83996304    -0.82100
C1726       C  0.02762875  0.19531431  0.80947339     0.98400
O1727       O  0.01012096  0.19866666  0.80251587    -0.82200
O1728       O  0.02254364  0.24109767  0.83271924    -0.84800
C1729       C  0.03244293  0.25657179  0.85667202     1.02900
O1730       O  0.02886006  0.25132941  0.88988480    -0.77600
O1731       O  0.04463900  0.22087967  0.91532536    -0.77700
C1732       C  0.04624704  0.20234201  0.91936456     1.02800
Cr1733     Cr  0.00399044  0.17470026  0.87476692     1.93700
Cr1734     Cr  0.99358126  0.21050576  0.83716474     1.93200
Cr1735     Cr  0.01310427  0.21941311  0.91559016     1.39100
O1736       O  0.00358336  0.20191499  0.87588178    -1.22800
O1737       O  0.82230367  0.30525245  0.50461549    -0.85100
O1738       O  0.81985796  0.30533162  0.57793642    -0.82100
C1739       C  0.82311114  0.28792634  0.58405584     0.98400
O1740       O  0.84344477  0.29020223  0.58044489    -0.82100
O1741       O  0.88846969  0.30624616  0.55298622    -0.84800
C1742       C  0.88664576  0.29957017  0.52037647     1.02900
O1743       O  0.87910991  0.30816844  0.49670229    -0.77600
O1744       O  0.85206953  0.32450700  0.96685703    -0.77700
C1745       C  0.83086731  0.30830842  0.97307395     1.02900
O1746       O  0.84407798  0.35547916  0.50348276    -0.85100
O1747       O  0.84755938  0.35593427  0.57681522    -0.82100
C1748       C  0.85386704  0.35345167  0.60785955     0.98400
O1749       O  0.85897875  0.33703591  0.61406841    -0.82200
O1750       O  0.90162843  0.35250922  0.58267331    -0.84800
C1751       C  0.91736579  0.36058018  0.55889041     1.02900
O1752       O  0.91208400  0.35423675  0.52623827    -0.77600
O1753       O  0.88264429  0.37112305  0.00123410    -0.77700
C1754       C  0.86432065  0.37311872  0.99720142     1.02800
Cr1755     Cr  0.83556741  0.33050789  0.54075399     1.93700
Cr1756     Cr  0.87230824  0.32197079  0.57957333     1.93200
Cr1757     Cr  0.88039501  0.33906072  0.00118624     1.39100
O1758       O  0.86282145  0.33047428  0.54031280    -1.22800
O1759       O  0.84520346  0.48454481  0.76674065    -0.85100
O1760       O  0.85028779  0.49279323  0.83944128    -0.82100
C1761       C  0.85800243  0.50395298  0.86859432     0.98400
O1762       O  0.86036523  0.52462181  0.87268106    -0.82100
O1763       O  0.90272979  0.55105777  0.84145428    -0.84800
C1764       C  0.91833780  0.55536135  0.81819187     1.02900
O1765       O  0.91316731  0.55344741  0.78489934    -0.77600
O1766       O  0.88339836  0.50695352  0.76370421    -0.77700
C1767       C  0.86530278  0.48693033  0.75965465     1.02900
O1768       O  0.82304026  0.51317196  0.76215654    -0.85100
O1769       O  0.82076386  0.51433037  0.83617160    -0.82100
C1770       C  0.82310757  0.53483586  0.83984352     0.98400
O1771       O  0.84281747  0.55275142  0.83310281    -0.82200
O1772       O  0.88782511  0.58086916  0.80420582    -0.84800
C1773       C  0.88778081  0.58378767  0.77033974     1.02900
O1774       O  0.88132879  0.56639357  0.74942539    -0.77600
O1775       O  0.85284407  0.52171558  0.72558057    -0.77700
C1776       C  0.83181662  0.51790982  0.73094114     1.02800
Cr1777     Cr  0.83686540  0.50332273  0.80105766     1.93700
Cr1778     Cr  0.87259065  0.55082597  0.83488155     1.93200
Cr1779     Cr  0.88136614  0.53657407  0.75911213     1.39100
O1780       O  0.86380923  0.53055562  0.79823774    -1.22800
O1781       O  0.17765846  0.69095249  0.91927491    -0.85100
O1782       O  0.17347506  0.69187164  0.99239340    -0.82100
C1783       C  0.16494448  0.68907714  0.52387878     0.98400
O1784       O  0.14379605  0.67252450  0.52969618    -0.82100
O1785       O  0.11681245  0.68826957  0.99807681    -0.84800
C1786       C  0.11037069  0.69773037  0.97433727     1.02900
O1787       O  0.10984784  0.69218923  0.94136627    -0.77600
O1788       O  0.15537327  0.70740418  0.91625049    -0.77700
C1789       C  0.17534466  0.70884665  0.91237884     1.02900
O1790       O  0.14900332  0.64069068  0.92164611    -0.85100
O1791       O  0.15158291  0.64149275  0.99514271    -0.82100
C1792       C  0.13125735  0.62368491  0.49879501     0.98400
O1793       O  0.11318454  0.62596463  0.49419035    -0.82200
O1794       O  0.08449261  0.64278207  0.96698317    -0.84800
C1795       C  0.08007284  0.63716794  0.93394058     1.02900
O1796       O  0.09621105  0.64595169  0.91088252    -0.77600
O1797       O  0.13939446  0.66029135  0.88291080    -0.77700
C1798       C  0.14298222  0.64298519  0.89026638     1.02800
Cr1799     Cr  0.16095764  0.66628124  0.95701741     1.93700
Cr1800     Cr  0.11598974  0.65816171  0.49423398     1.93200
Cr1801     Cr  0.12591021  0.67596570  0.91586263     1.39100
O1802       O  0.13395418  0.66664332  0.95571573    -1.22800
O1803       O  0.02163795  0.84020509  0.65728614    -0.85100
O1804       O  0.01986971  0.83609129  0.58371358    -0.82100
C1805       C  0.01618161  0.82716802  0.55263425     0.98400
O1806       O  0.99938670  0.80606674  0.54715874    -0.82100
O1807       O  0.01705098  0.77969168  0.57554146    -0.84800
C1808       C  0.02718327  0.77341882  0.59839811     1.02900
O1809       O  0.02209994  0.77217381  0.63163349    -0.77600
O1810       O  0.03801402  0.81777184  0.65900516    -0.77700
C1811       C  0.03957399  0.83789434  0.66332863     1.02900
O1812       O  0.97169411  0.81160267  0.65843466    -0.85100
O1813       O  0.96962446  0.81356721  0.58535715    -0.82100
C1814       C  0.95191343  0.79320209  0.58094611     0.98400
O1815       O  0.95441848  0.77520433  0.58516425    -0.82200
O1816       O  0.97268776  0.74653108  0.60860979    -0.84800
C1817       C  0.96744372  0.74186577  0.64162006     1.02900
O1818       O  0.97660807  0.75796051  0.66496905    -0.77600
O1819       O  0.99199693  0.80121451  0.69479002    -0.77700
C1820       C  0.97526915  0.80587886  0.68922978     1.02800
Cr1821     Cr  0.99578229  0.82334468  0.62116231     1.93700
Cr1822     Cr  0.98642128  0.77814244  0.58210861     1.93200
Cr1823     Cr  0.00659412  0.78796943  0.65962659     1.39100
O1824       O  0.99634815  0.79630369  0.62102822    -1.22800
O1825       O  0.30907585  0.82601336  0.74515956    -0.85100
O1826       O  0.30784413  0.82299040  0.67145250    -0.82100
C1827       C  0.28925311  0.82441132  0.66676603     0.98400
O1828       O  0.29011068  0.84419298  0.67139963    -0.82100
O1829       O  0.30556146  0.89045040  0.69692102    -0.84800
C1830       C  0.30088325  0.89017635  0.73014247     1.02900
O1831       O  0.31043798  0.88336662  0.75321183    -0.77600
O1832       O  0.32754365  0.85646333  0.78211591    -0.77700
C1833       C  0.31183755  0.83491190  0.77617429     1.02900
O1834       O  0.35931518  0.84971949  0.74461476    -0.85100
O1835       O  0.35809422  0.85339412  0.67164789    -0.82100
C1836       C  0.35468572  0.85968262  0.64118942     0.98400
O1837       O  0.33616978  0.86130082  0.63492037    -0.82200
O1838       O  0.35063256  0.90442539  0.66414664    -0.84800
C1839       C  0.36017240  0.92058658  0.68733904     1.02900
O1840       O  0.35534078  0.91607112  0.72054583    -0.77600
O1841       O  0.37335009  0.88790578  0.74626585    -0.77700
C1842       C  0.37646597  0.87026191  0.75018672     1.02800
Cr1843     Cr  0.33341353  0.83997505  0.70815132     1.93700
Cr1844     Cr  0.32112633  0.87432318  0.66985294     1.93200
Cr1845     Cr  0.34111165  0.88462851  0.74758668     1.39100
O1846       O  0.33173871  0.86648693  0.70868271    -1.22800
O1847       O  0.15366605  0.97066387  0.84324167    -0.85100
O1848       O  0.15091723  0.97095731  0.91625739    -0.82100
C1849       C  0.15380622  0.95322891  0.92146403     0.98400
O1850       O  0.17407242  0.95531791  0.91739801    -0.82100
O1851       O  0.22012368  0.97256180  0.89130570    -0.84800
C1852       C  0.21939383  0.96709955  0.85827471     1.02900
O1853       O  0.21169453  0.97567938  0.83499711    -0.77600
O1854       O  0.18283157  0.98988928  0.80528736    -0.77700
C1855       C  0.16221587  0.97260249  0.81223186     1.02900
O1856       O  0.17453372  0.02098062  0.84122277    -0.85100
O1857       O  0.17866361  0.02146857  0.91465122    -0.82100
C1858       C  0.18548443  0.01916809  0.94545489     0.98400
O1859       O  0.18893415  0.00170475  0.95199342    -0.82200
O1860       O  0.23205486  0.01802792  0.92272583    -0.84800
C1861       C  0.24782706  0.02741414  0.89918827     1.02900
O1862       O  0.24309823  0.02169610  0.86617890    -0.77600
O1863       O  0.21278358  0.03713321  0.84008467    -0.77700
C1864       C  0.19446908  0.03893293  0.83554536     1.02800
Cr1865     Cr  0.16646396  0.99607219  0.87887777     1.93700
Cr1866     Cr  0.20297281  0.98730500  0.91790051     1.93200
Cr1867     Cr  0.21137053  0.00564150  0.83952342     1.39100
O1868       O  0.19382162  0.99626585  0.87872831    -1.22800
O1869       O  0.50279589  0.14504647  0.57422083    -0.85100
O1870       O  0.50747371  0.15099856  0.50014645    -0.82100
C1871       C  0.50624216  0.13110581  0.99478899     0.98400
O1872       O  0.48682774  0.11282939  0.00085162    -0.82100
O1873       O  0.44221410  0.08295015  0.52795056    -0.84800
C1874       C  0.43859279  0.07869938  0.56140651     1.02900
O1875       O  0.44051543  0.09445849  0.58307639    -0.77600
O1876       O  0.47271974  0.13627439  0.61093855    -0.77700
C1877       C  0.49276270  0.13766984  0.60428935     1.02900
O1878       O  0.48455305  0.17676278  0.57699178    -0.85100
O1879       O  0.47939885  0.17276961  0.00226145    -0.82100
C1880       C  0.47200686  0.16308976  0.97188472     0.98400
O1881       O  0.46823892  0.14201914  0.96536097    -0.82200
O1882       O  0.42501587  0.11148069  0.49301349    -0.84800
C1883       C  0.40962143  0.11047470  0.51448447     1.02900
O1884       O  0.41411908  0.11417507  0.54794385    -0.77600
O1885       O  0.44628768  0.15794291  0.57554305    -0.77700
C1886       C  0.46532297  0.17664195  0.58203608     1.02800
Cr1887     Cr  0.49128660  0.15927224  0.53857129     1.93700
Cr1888     Cr  0.45653001  0.11378704  0.99989987     1.93200
Cr1889     Cr  0.44484970  0.12635878  0.57623340     1.39100
O1890       O  0.46355293  0.13272907  0.53818012    -1.22800
O1891       O  0.84712280  0.02561507  0.58414352    -0.85100
O1892       O  0.84317191  0.02769766  0.65673363    -0.82100
C1893       C  0.83415000  0.02623953  0.68720425     0.98400
O1894       O  0.81351122  0.00906175  0.69423584    -0.82100
O1895       O  0.78578667  0.02381459  0.66194417    -0.84800
C1896       C  0.77889801  0.03254397  0.63767411     1.02900
O1897       O  0.77871479  0.02670698  0.60488015    -0.77600
O1898       O  0.82493131  0.04220109  0.58069684    -0.77700
C1899       C  0.84502816  0.04368089  0.57802849     1.02900
O1900       O  0.81890782  0.97554481  0.58760505    -0.85100
O1901       O  0.82155872  0.97742831  0.66135605    -0.82100
C1902       C  0.80143623  0.95955913  0.66575938     0.98400
O1903       O  0.78330388  0.96158106  0.66042887    -0.82200
O1904       O  0.75407517  0.97754154  0.63165235    -0.84800
C1905       C  0.74961697  0.97144513  0.59872546     1.02900
O1906       O  0.76577687  0.98028448  0.57560221    -0.77600
O1907       O  0.80943541  0.99495138  0.54819354    -0.77700
C1908       C  0.81346296  0.97795007  0.55587226     1.02800
Cr1909     Cr  0.83067491  0.00153960  0.62238608     1.93700
Cr1910     Cr  0.78542634  0.99338055  0.65923870     1.93200
Cr1911     Cr  0.79543858  0.01061523  0.58031987     1.39100
O1912       O  0.80356372  0.00183108  0.62058464    -1.22800
O1913       O  0.49058711  0.84887536  0.99808499    -0.85100
O1914       O  0.49324179  0.85322021  0.92405361    -0.82100
C1915       C  0.50192805  0.85983444  0.89302912     0.98400
O1916       O  0.52290378  0.86374819  0.88634762    -0.82100
O1917       O  0.55038306  0.90678673  0.91459365    -0.84800
C1918       C  0.55576238  0.92275428  0.93769866     1.02900
O1919       O  0.55576433  0.91841243  0.97111142    -0.77600
O1920       O  0.51087429  0.88771049  0.49849840    -0.77700
C1921       C  0.49166929  0.86904337  0.50459331     1.02900
O1922       O  0.52057403  0.82897671  0.49563870    -0.85100
O1923       O  0.51625907  0.82563039  0.92126578    -0.82100
C1924       C  0.53651308  0.82800305  0.91619492     0.98400
O1925       O  0.55442024  0.84800319  0.92125750    -0.82200
O1926       O  0.58311383  0.89362633  0.94688578    -0.84800
C1927       C  0.58797018  0.89409064  0.98019004     1.02900
O1928       O  0.57209528  0.88830169  0.00350627    -0.77600
O1929       O  0.52948693  0.85862359  0.53338015    -0.77700
C1930       C  0.52702740  0.83812636  0.52644297     1.02800
Cr1931     Cr  0.50720900  0.84122595  0.95952894     1.93700
Cr1932     Cr  0.55145818  0.87727016  0.92028117     1.93200
Cr1933     Cr  0.54134987  0.88704140  0.49917601     1.39100
O1934       O  0.53366136  0.86882471  0.95936683    -1.22800
O1935       O  0.68820197  0.17588472  0.82183778    -0.85100
O1936       O  0.68841577  0.17196437  0.74837028    -0.82100
C1937       C  0.68576657  0.16326367  0.71723545     0.98400
O1938       O  0.66914493  0.14217670  0.71086233    -0.82100
O1939       O  0.68520160  0.11444520  0.73976248    -0.84800
C1940       C  0.69580914  0.10902448  0.76306904     1.02900
O1941       O  0.69115705  0.10887099  0.79637364    -0.77600
O1942       O  0.70531637  0.15414908  0.82358616    -0.77700
C1943       C  0.70618321  0.17384300  0.82879393     1.02900
O1944       O  0.63836067  0.14678247  0.82023950    -0.85100
O1945       O  0.63836568  0.14984234  0.74654429    -0.82100
C1946       C  0.62073182  0.12959436  0.74123468     0.98400
O1947       O  0.62298434  0.11153612  0.74639927    -0.82200
O1948       O  0.63980451  0.08225598  0.77185633    -0.84800
C1949       C  0.63514048  0.07773474  0.80507501     1.02900
O1950       O  0.64515237  0.09378091  0.82824718    -0.77600
O1951       O  0.65827013  0.13640767  0.85761195    -0.77700
C1952       C  0.64138646  0.14081323  0.85124356     1.02800
Cr1953     Cr  0.66340514  0.15900351  0.78421931     1.93700
Cr1954     Cr  0.65482981  0.11391450  0.74528079     1.93200
Cr1955     Cr  0.67442164  0.12401677  0.82337094     1.39100
O1956       O  0.66426664  0.13204085  0.78434362    -1.22800
O1957       O  0.51648739  0.36375630  0.75617858    -0.85100
O1958       O  0.51275916  0.36435903  0.83023350    -0.82100
C1959       C  0.50362730  0.36131059  0.86109996     0.98400
O1960       O  0.48242054  0.34477577  0.86630786    -0.82100
O1961       O  0.45500861  0.36078767  0.83511017    -0.84800
C1962       C  0.44837578  0.36991993  0.81100319     1.02900
O1963       O  0.44812947  0.36434100  0.77810533    -0.77600
O1964       O  0.49386388  0.37981814  0.75183584    -0.77700
C1965       C  0.51401748  0.38146269  0.74871023     1.02900
O1966       O  0.48857531  0.31358865  0.75761722    -0.85100
O1967       O  0.49091774  0.31402566  0.83150397    -0.82100
C1968       C  0.47075508  0.29638321  0.83702566     0.98400
O1969       O  0.45257212  0.29832019  0.83128775    -0.82200
O1970       O  0.42302321  0.31481894  0.80424582    -0.84800
C1971       C  0.41822622  0.30917095  0.77127662     1.02900
O1972       O  0.43435964  0.31800659  0.74810240    -0.77600
O1973       O  0.47751911  0.33242774  0.71933070    -0.77700
C1974       C  0.48233380  0.31589814  0.72637552     1.02800
Cr1975     Cr  0.50003658  0.33899904  0.79374251     1.93700
Cr1976     Cr  0.45459789  0.33019448  0.83118307     1.93200
Cr1977     Cr  0.46427748  0.34818319  0.75252040     1.39100
O1978       O  0.47278708  0.33921750  0.79244255    -1.22800
O1979       O  0.18563373  0.15811600  0.58563133    -0.85100
O1980       O  0.18660174  0.16010296  0.65901537    -0.82100
C1981       C  0.19199423  0.16838014  0.69042375     0.98400
O1982       O  0.19570071  0.18933426  0.69736418    -0.82100
O1983       O  0.23986788  0.21773880  0.67224357    -0.84800
C1984       C  0.25672221  0.22426481  0.65051497     1.02900
O1985       O  0.25312696  0.22464572  0.61682277    -0.77600
O1986       O  0.22397742  0.17910750  0.58866104    -0.77700
C1987       C  0.20562056  0.15942881  0.58313633     1.02900
O1988       O  0.16439839  0.18732302  0.58513396    -0.85100
O1989       O  0.15848658  0.18263022  0.65833923    -0.82100
C1990       C  0.16075477  0.20288592  0.66384537     0.98400
O1991       O  0.18087352  0.22087467  0.66036675    -0.82200
O1992       O  0.22685739  0.25022014  0.63817848    -0.84800
C1993       C  0.22745238  0.25510552  0.60488228     1.02900
O1994       O  0.22254188  0.23943997  0.58133193    -0.77600
O1995       O  0.19536395  0.19711535  0.55027629    -0.77700
C1996       C  0.17417095  0.19321196  0.55479421     1.02800
Cr1997     Cr  0.17583457  0.17408313  0.62222674     1.93700
Cr1998     Cr  0.21017862  0.21828991  0.66402435     1.93200
Cr1999     Cr  0.22244443  0.20928573  0.58712873     1.39100
O2000       O  0.20313150  0.20083437  0.62449680    -1.22800
O2001       O  0.35462574  0.50878516  0.99804335    -0.85100
O2002       O  0.35373519  0.50723673  0.92453113    -0.82100
C2003       C  0.35093858  0.49914490  0.89301404     0.98400
O2004       O  0.33454898  0.47808883  0.88571104    -0.82100
O2005       O  0.35011309  0.44917180  0.91103980    -0.84800
C2006       C  0.36062173  0.44278211  0.93308589     1.02900
O2007       O  0.35637625  0.44205831  0.96657205    -0.77600
O2008       O  0.37265044  0.48732881  0.49562343    -0.77700
C2009       C  0.37382994  0.50696057  0.50275374     1.02900
O2010       O  0.30579340  0.48036633  0.49887392    -0.85100
O2011       O  0.30377703  0.48521739  0.92440306    -0.82100
C2012       C  0.28623578  0.46526209  0.91734189     0.98400
O2013       O  0.28834116  0.44698464  0.92102176    -0.82200
O2014       O  0.30502163  0.41690070  0.94380269    -0.84800
C2015       C  0.30088389  0.41171263  0.97698028     1.02900
O2016       O  0.31123032  0.42712566  0.00094177    -0.77600
O2017       O  0.32692292  0.46980518  0.53329135    -0.77700
C2018       C  0.30996939  0.47432893  0.52911717     1.02800
Cr2019     Cr  0.32922678  0.49313852  0.96100257     1.93700
Cr2020     Cr  0.32004504  0.44900259  0.91850041     1.93200
Cr2021     Cr  0.34150378  0.45744199  0.49653134     1.39100
O2022       O  0.32998689  0.46617103  0.95837027    -1.22800
O2023       O  0.49002293  0.63872658  0.67809568    -0.85100
O2024       O  0.48754735  0.64195777  0.75147257    -0.82100
C2025       C  0.48960300  0.62397846  0.75837748     0.98400
O2026       O  0.50937932  0.62502277  0.75417866    -0.82100
O2027       O  0.55384498  0.63872890  0.72612998    -0.84800
C2028       C  0.55352376  0.63325214  0.69319018     1.02900
O2029       O  0.54786370  0.64327663  0.66918445    -0.77600
O2030       O  0.51894019  0.65759526  0.63935435    -0.77700
C2031       C  0.49868715  0.64021627  0.64726537     1.02900
O2032       O  0.51095742  0.68886703  0.67232137    -0.85100
O2033       O  0.51605154  0.69173243  0.74627401    -0.82100
C2034       C  0.52273870  0.68976729  0.77742024     0.98400
O2035       O  0.52737494  0.67316663  0.78485975    -0.82200
O2036       O  0.56969634  0.68578511  0.75480460    -0.84800
C2037       C  0.58504649  0.69468158  0.73056870     1.02900
O2038       O  0.57962631  0.68947795  0.69769834    -0.77600
O2039       O  0.54928650  0.70528591  0.67094856    -0.77700
C2040       C  0.53072108  0.70641334  0.66459214     1.02800
Cr2041     Cr  0.50326249  0.66534069  0.71201600     1.93700
Cr2042     Cr  0.53928259  0.65619162  0.75187661     1.93200
Cr2043     Cr  0.54769810  0.67351778  0.67246226     1.39100
O2044       O  0.53042647  0.66505536  0.71221359    -1.22800
O2045       O  0.66499215  0.50498920  0.59965032    -0.85100
O2046       O  0.63437996  0.49077423  0.54227543    -0.82100
C2047       C  0.62328139  0.49251815  0.01524449     0.98400
O2048       O  0.63224854  0.51163936  0.99745190    -0.82100
O2049       O  0.63334080  0.54608206  0.54523792    -0.84800
C2050       C  0.64071678  0.56131968  0.57051803     1.02900
O2051       O  0.66241919  0.57186697  0.57879264    -0.77600
O2052       O  0.65935314  0.53428254  0.61650750    -0.77700
C2053       C  0.65453816  0.51285348  0.61957787     1.02900
O2054       O  0.70438361  0.52453884  0.55060413    -0.85100
O2055       O  0.67372196  0.50934623  0.99383275    -0.82100
C2056       C  0.68427912  0.52722381  0.97348661     0.98400
O2057       O  0.68032764  0.54451625  0.97678115    -0.82200
O2058       O  0.67849614  0.57998889  0.51502711    -0.84800
C2059       C  0.69998570  0.59093587  0.52471257     1.02900
O2060       O  0.70727226  0.58215358  0.54897935    -0.77600
O2061       O  0.70720508  0.54744019  0.59564238    -0.77700
C2062       C  0.71552843  0.53663260  0.57762974     1.02800
Cr2063     Cr  0.66945493  0.50955799  0.54654498     1.93700
Cr2064     Cr  0.65673412  0.54494490  0.01078879     1.93200
Cr2065     Cr  0.68339280  0.55752755  0.58252231     1.39100
O2066       O  0.66998334  0.53723915  0.54669221    -1.22800
O2067       O  0.81663544  0.83953588  0.83670177    -0.85100
O2068       O  0.81865395  0.84086398  0.90966963    -0.82100
C2069       C  0.79875865  0.83973197  0.91339670     0.98400
O2070       O  0.78014466  0.82024304  0.90794997    -0.82100
O2071       O  0.74996933  0.77460525  0.88157908    -0.84800
C2072       C  0.74543118  0.77592252  0.84869688     1.02900
O2073       O  0.76151073  0.78300273  0.82556236    -0.77600
O2074       O  0.80474840  0.81031959  0.79749180    -0.77700
C2075       C  0.80935854  0.83139575  0.80560817     1.02900
O2076       O  0.84300847  0.81551934  0.83392512    -0.85100
O2077       O  0.83836048  0.80957204  0.90725870    -0.82100
C2078       C  0.82851203  0.80284651  0.93746322     0.98400
O2079       O  0.80884033  0.80211848  0.94357212    -0.82200
O2080       O  0.78123557  0.75974005  0.91266409    -0.84800
C2081       C  0.77521850  0.74410956  0.88866770     1.02900
O2082       O  0.77439698  0.74913728  0.85572161    -0.77600
O2083       O  0.81951753  0.77745112  0.82972148    -0.77700
C2084       C  0.83992376  0.79511053  0.82715469     1.02800
Cr2085     Cr  0.82725152  0.82446812  0.87185380     1.93700
Cr2086     Cr  0.78125514  0.78994949  0.90856174     1.93200
Cr2087     Cr  0.79077309  0.78117160  0.83006032     1.39100
O2088       O  0.79948847  0.79829646  0.86998997    -1.22800
C2089       C  0.77303533  0.69591779  0.94864836    -0.01700
C2090       C  0.75141582  0.67599512  0.93858254     0.06900
C2091       C  0.73912393  0.67785326  0.90855718    -0.07700
C2092       C  0.74744653  0.69938284  0.88969157     0.04300
C2093       C  0.76844829  0.71966969  0.90107134    -0.14900
C2094       C  0.78131545  0.71734851  0.92990312    -0.08300
C2095       C  0.73972975  0.65455638  0.96216377     0.05200
C2096       C  0.71989786  0.65109962  0.48177084    -0.09400
C2097       C  0.70798569  0.63140623  0.50437014     0.00200
C2098       C  0.71550643  0.61424918  0.50727967     0.00100
C2099       C  0.73581343  0.61800161  0.98842574    -0.12900
C2100       C  0.74786703  0.63793696  0.96577056     0.00600
C2101       C  0.68785440  0.62924066  0.52406152     0.39900
C2102       C  0.76789812  0.64049468  0.94536890     0.36500
C2103       C  0.78602264  0.69532537  0.97990898     0.36200
C2104       C  0.73313992  0.70076243  0.86092913     0.37000
N2105       N  0.67176345  0.62790424  0.53948783    -0.43800
N2106       N  0.78398395  0.64262109  0.92897254    -0.44300
N2107       N  0.72166304  0.70187755  0.83788612    -0.41600
N2108       N  0.79640055  0.69487092  0.00501964    -0.43100
H2109       H  0.79751565  0.73292924  0.93919404     0.13100
H2110       H  0.72219369  0.66256855  0.90084759     0.09600
H2111       H  0.71385340  0.66399227  0.47978383     0.10700
H2112       H  0.74144915  0.60477695  0.98969939     0.16500
C2113       C  0.64840553  0.71390693  0.75568935    -0.01700
C2114       C  0.65382562  0.73316765  0.77912276     0.06900
C2115       C  0.63769572  0.74169224  0.78215470    -0.07700
C2116       C  0.61583744  0.73042861  0.76408718     0.04300
C2117       C  0.60983657  0.71035378  0.74225358    -0.14900
C2118       C  0.62652277  0.70265338  0.73753793    -0.08300
C2119       C  0.67636421  0.74493131  0.80018341     0.05200
C2120       C  0.69352345  0.76815398  0.79115878    -0.09400
C2121       C  0.71569979  0.77923777  0.80827139     0.00200
C2122       C  0.72085138  0.76724820  0.83574850     0.00100
C2123       C  0.70310593  0.74462375  0.84639909    -0.12900
C2124       C  0.68112640  0.73329819  0.82860964     0.00600
C2125       C  0.73298620  0.80280611  0.79672761     0.39900
C2126       C  0.66404693  0.70947000  0.83927329     0.36500
C2127       C  0.66496481  0.70529958  0.75016158     0.36200
C2128       C  0.59978717  0.73979463  0.76817450     0.37000
N2129       N  0.74672591  0.82168219  0.78730391    -0.43800
N2130       N  0.65051803  0.69029280  0.84776329    -0.44300
N2131       N  0.58701691  0.74744335  0.77105250    -0.41600
N2132       N  0.67830020  0.69846911  0.74582305    -0.43100
H2133       H  0.62199976  0.68712674  0.72107797     0.13100
H2134       H  0.64197514  0.75685211  0.79933063     0.09600
H2135       H  0.68987126  0.77734255  0.76971018     0.10700
H2136       H  0.70692501  0.73514966  0.86719451     0.16500
C2137       C  0.58947534  0.60123214  0.68861596    -0.01700
C2138       C  0.58419890  0.59158163  0.65348504     0.06900
C2139       C  0.56612559  0.59245566  0.63407731    -0.07700
C2140       C  0.55473044  0.60445086  0.64755746     0.04300
C2141       C  0.56138464  0.61606314  0.68149268    -0.14900
C2142       C  0.57808383  0.61333744  0.70231663    -0.08300
C2143       C  0.59891764  0.58313031  0.63435552     0.05200
C2144       C  0.58850584  0.55964847  0.62132661    -0.09400
C2145       C  0.60145851  0.55201249  0.59995663     0.00200
C2146       C  0.62514077  0.56817820  0.59071316     0.00100
C2147       C  0.63549009  0.59147042  0.60444381    -0.12900
C2148       C  0.62267358  0.59909780  0.62553795     0.00600
C2149       C  0.59060557  0.52728219  0.58987916     0.39900
C2150       C  0.63413867  0.62371526  0.63664832     0.36500
C2151       C  0.60698217  0.59951429  0.71061824     0.36200
C2152       C  0.53682729  0.60500375  0.62500570     0.37000
N2153       N  0.58202970  0.50740056  0.58212739    -0.43800
N2154       N  0.64337498  0.64342739  0.64554672    -0.44300
N2155       N  0.52270330  0.60524520  0.60615663    -0.41600
N2156       N  0.62102669  0.59816887  0.72828190    -0.43100
H2157       H  0.58323246  0.62176454  0.72851381     0.13100
H2158       H  0.56174766  0.58478095  0.60729280     0.09600
H2159       H  0.57023402  0.54725330  0.62799090     0.10700
H2160       H  0.65386636  0.60396191  0.59868436     0.16500
C2161       C  0.45144859  0.57123892  0.81799037    -0.01700
C2162       C  0.42851287  0.56443502  0.80484503     0.06900
C2163       C  0.42595660  0.57610445  0.77487943    -0.07700
C2164       C  0.44573077  0.59480840  0.75852551     0.04300
C2165       C  0.46873800  0.60230767  0.77233000    -0.14900
C2166       C  0.47136958  0.58993352  0.80149477    -0.08300
C2167       C  0.40686158  0.54679219  0.82388260     0.05200
C2168       C  0.39468389  0.55521463  0.84505925    -0.09400
C2169       C  0.37518862  0.53961264  0.86564534     0.00200
C2170       C  0.36749370  0.51496611  0.86525628     0.00100
C2171       C  0.37874243  0.50634684  0.84221002    -0.12900
C2172       C  0.39837605  0.52210804  0.82160603     0.00600
C2173       C  0.36356943  0.54940532  0.88742120     0.39900
C2174       C  0.40978204  0.51271382  0.79869974     0.36500
C2175       C  0.45480177  0.56008714  0.84945274     0.36200
C2176       C  0.44182406  0.60572689  0.72723886     0.37000
N2177       N  0.35423661  0.55716991  0.90494457    -0.43800
N2178       N  0.41895076  0.50529422  0.78013800    -0.44300
N2179       N  0.43848095  0.61423869  0.70206883    -0.41600
N2180       N  0.45740810  0.55114638  0.87473944    -0.43100
H2181       H  0.48887516  0.59556635  0.81243140     0.13100
H2182       H  0.40835607  0.57083885  0.76464999     0.09600
H2183       H  0.40084916  0.57413416  0.84623554     0.10700
H2184       H  0.37303661  0.48752770  0.84174218     0.16500
C2185       C  0.46752870  0.60973689  0.56060866    -0.01700
C2186       C  0.45391222  0.58594477  0.57213621     0.06900
C2187       C  0.45689441  0.57990777  0.60716723    -0.07700
C2188       C  0.47211567  0.59727545  0.63134935     0.04300
C2189       C  0.48459959  0.62139649  0.62073516    -0.14900
C2190       C  0.48275582  0.62729918  0.58495305    -0.08300
C2191       C  0.43489342  0.56723783  0.54972398     0.05200
C2192       C  0.43652936  0.54714973  0.53947772    -0.09400
C2193       C  0.41733521  0.52751725  0.52308558     0.00200
C2194       C  0.39578529  0.52768999  0.51716187     0.00100
C2195       C  0.39469489  0.54832173  0.52640831    -0.12900
C2196       C  0.41380933  0.56781251  0.54265454     0.00600
C2197       C  0.41934950  0.50730806  0.01259185     0.39900
C2198       C  0.41079918  0.58761112  0.55384403     0.36500
C2199       C  0.46602935  0.61644741  0.52407013     0.36200
C2200       C  0.47532745  0.58963039  0.66643821     0.37000
N2201       N  0.42173011  0.49125403  0.00471815    -0.43800
N2202       N  0.40835996  0.60344739  0.56282102    -0.44300
N2203       N  0.47802696  0.58326500  0.69426566    -0.41600
N2204       N  0.46592738  0.62150588  0.99345174    -0.43100
H2205       H  0.49261788  0.64565529  0.57634383     0.13100
H2206       H  0.44682387  0.56158671  0.61592531     0.09600
H2207       H  0.45272710  0.54660699  0.54513002     0.10700
H2208       H  0.37850065  0.54909814  0.52199845     0.16500
C2209       C  0.23012232  0.30315194  0.54398850    -0.01700
C2210       C  0.25241219  0.32258822  0.55259462     0.06900
C2211       C  0.26512933  0.32064361  0.58193993    -0.07700
C2212       C  0.25646354  0.29932853  0.60148595     0.04300
C2213       C  0.23469426  0.27945452  0.59165490    -0.14900
C2214       C  0.22153504  0.28186206  0.56331838    -0.08300
C2215       C  0.26339402  0.34443418  0.52982433     0.05200
C2216       C  0.25500935  0.36076007  0.53183635    -0.09400
C2217       C  0.26605249  0.38215824  0.51242751     0.00200
C2218       C  0.28485476  0.38712172  0.98944866     0.00100
C2219       C  0.29187424  0.36988756  0.98489433    -0.12900
C2220       C  0.28224047  0.34914653  0.50619983     0.00600
C2221       C  0.25731575  0.39877882  0.51623493     0.39900
C2222       C  0.29000149  0.33211596  0.00073898     0.36500
C2223       C  0.21645423  0.30428165  0.51406499     0.36200
C2224       C  0.27110437  0.29769390  0.62945226     0.37000
N2225       N  0.25026995  0.41207863  0.51899752    -0.43800
N2226       N  0.29705006  0.31883519  0.99769467    -0.44300
N2227       N  0.28287232  0.29637441  0.65182428    -0.41600
N2228       N  0.20567585  0.30542880  0.49001524    -0.43100
H2229       H  0.20486111  0.26665230  0.55525022     0.13100
H2230       H  0.28230316  0.33555757  0.58871199     0.09600
H2231       H  0.24027085  0.35709413  0.54941968     0.10700
H2232       H  0.30665057  0.37362254  0.96739885     0.16500
C2233       C  0.55837148  0.40272964  0.91491041    -0.01700
C2234       C  0.54904952  0.41046709  0.94282018     0.06900
C2235       C  0.52438147  0.40078812  0.94525254    -0.07700
C2236       C  0.50907225  0.38396826  0.91999373     0.04300
C2237       C  0.51848229  0.37688686  0.89116233    -0.14900
C2238       C  0.54318103  0.38622202  0.88949201    -0.08300
C2239       C  0.56505793  0.43047266  0.96691005     0.05200
C2240       C  0.56751615  0.45299171  0.96070613    -0.09400
C2241       C  0.58530059  0.47325892  0.97795370     0.00200
C2242       C  0.60128547  0.47126665  0.00195377     0.00100
C2243       C  0.59745957  0.44835916  0.01036523    -0.12900
C2244       C  0.57959329  0.42809117  0.99306783     0.00600
C2245       C  0.58680313  0.49586602  0.97013379     0.39900
C2246       C  0.57685521  0.40509173  0.00184613     0.36500
C2247       C  0.58360876  0.41238363  0.91075956     0.36200
C2248       C  0.48397536  0.37544382  0.92312930     0.37000
N2249       N  0.58794024  0.51396205  0.96388712    -0.43800
N2250       N  0.57461512  0.38664818  0.00897548    -0.44300
N2251       N  0.46386246  0.36868501  0.92562077    -0.41600
N2252       N  0.60383451  0.42013830  0.90751807    -0.43100
H2253       H  0.55075479  0.38092560  0.86779502     0.13100
H2254       H  0.51712419  0.40684616  0.96641188     0.09600
H2255       H  0.55610180  0.45488238  0.94108453     0.10700
H2256       H  0.60919582  0.44631368  0.02914888     0.16500
C2257       C  0.60898460  0.45421841  0.65986141    -0.01700
C2258       C  0.59537749  0.46070630  0.68187125     0.06900
C2259       C  0.60225351  0.48489725  0.68552625    -0.07700
C2260       C  0.62205514  0.50249487  0.66706145     0.04300
C2261       C  0.63554452  0.49595045  0.64439511    -0.14900
C2262       C  0.62879935  0.47165984  0.64179478    -0.08300
C2263       C  0.57426088  0.44229328  0.70153958     0.05200
C2264       C  0.57762372  0.42851665  0.72756652    -0.09400
C2265       C  0.55835077  0.40931994  0.74409015     0.00200
C2266       C  0.53483828  0.40346300  0.73476790     0.00100
C2267       C  0.53150189  0.41805376  0.70996848    -0.12900
C2268       C  0.55094489  0.43723720  0.69322769     0.00600
C2269       C  0.56340762  0.39603815  0.77062824     0.39900
C2270       C  0.54654590  0.45069588  0.66622891     0.36500
C2271       C  0.60232031  0.42960070  0.65392646     0.36200
C2272       C  0.62778835  0.52693964  0.67180937     0.37000
N2273       N  0.56754370  0.38541768  0.79180265    -0.43800
N2274       N  0.54308437  0.46150347  0.64452996    -0.44300
N2275       N  0.63228068  0.54649326  0.67581704    -0.41600
N2276       N  0.59698955  0.40990145  0.64899212    -0.43100
H2277       H  0.63849823  0.46596859  0.62438565     0.13100
H2278       H  0.59200741  0.49002908  0.70273684     0.09600
H2279       H  0.59551006  0.43250399  0.73443879     0.10700
H2280       H  0.51366694  0.41387255  0.70246030     0.16500
C2281       C  0.32226872  0.26491986  0.67048256    -0.01700
C2282       C  0.32540626  0.25555842  0.70319461     0.06900
C2283       C  0.30643033  0.23452957  0.71642445    -0.07700
C2284       C  0.28453964  0.22318304  0.69821514     0.04300
C2285       C  0.28099737  0.23302739  0.66614388    -0.14900
C2286       C  0.30031066  0.25366518  0.65228301    -0.08300
C2287       C  0.34859583  0.26707283  0.72317957     0.05200
C2288       C  0.35087849  0.27901620  0.75592079    -0.09400
C2289       C  0.37303692  0.29175576  0.77346108     0.00200
C2290       C  0.39352029  0.29275475  0.75814871     0.00100
C2291       C  0.39075229  0.27962014  0.72646594    -0.12900
C2292       C  0.36869129  0.26682201  0.70926004     0.00600
C2293       C  0.37444298  0.30470069  0.80588579     0.39900
C2294       C  0.36706611  0.25356876  0.67709826     0.36500
C2295       C  0.34117831  0.28657565  0.65573404     0.36200
C2296       C  0.26616873  0.20106223  0.71271002     0.37000
N2297       N  0.37558406  0.31506761  0.83190394    -0.43800
N2298       N  0.36560866  0.24284759  0.65135975    -0.44300
N2299       N  0.25164311  0.18325242  0.72439284    -0.41600
N2300       N  0.35642844  0.30392479  0.64401086    -0.43100
H2301       H  0.29797223  0.26163949  0.62806758     0.13100
H2302       H  0.30878099  0.22685456  0.74098514     0.09600
H2303       H  0.33547038  0.27904864  0.76717100     0.10700
H2304       H  0.40605600  0.27971530  0.71456845     0.16500
C2305       C  0.40456912  0.39116622  0.83117019    -0.01700
C2306       C  0.41646489  0.40814521  0.85850122     0.06900
C2307       C  0.44018884  0.41497770  0.86605598    -0.07700
C2308       C  0.45160592  0.40414810  0.84836173     0.04300
C2309       C  0.43917312  0.38589492  0.82284719    -0.14900
C2310       C  0.41590377  0.38014911  0.81368887    -0.08300
C2311       C  0.40422508  0.41856594  0.87979610     0.05200
C2312       C  0.39148011  0.40676924  0.91077002    -0.09400
C2313       C  0.37823539  0.41505509  0.92999534     0.00200
C2314       C  0.37745531  0.43546696  0.91808567     0.00100
C2315       C  0.39092121  0.44763735  0.88770966    -0.12900
C2316       C  0.40429570  0.43947698  0.86880873     0.00600
C2317       C  0.36450659  0.40144797  0.96041683     0.39900
C2318       C  0.41752394  0.45250979  0.83765773     0.36500
C2319       C  0.38051967  0.38442380  0.82127493     0.36200
C2320       C  0.47623266  0.41227475  0.85639414     0.37000
N2321       N  0.35356981  0.39051166  0.98484790    -0.43800
N2322       N  0.42820608  0.46295144  0.81272912    -0.44300
N2323       N  0.49605914  0.41902383  0.86246459    -0.41600
N2324       N  0.36128177  0.37916345  0.81327162    -0.43100
H2325       H  0.40613265  0.36615697  0.79424186     0.13100
H2326       H  0.44967997  0.42852554  0.88623779     0.09600
H2327       H  0.39139001  0.39068832  0.91938354     0.10700
H2328       H  0.39058538  0.46333734  0.87819682     0.16500
C2329       C  0.59792900  0.98399242  0.90389212    -0.01700
C2330       C  0.58356320  0.98804600  0.87942608     0.06900
C2331       C  0.55917577  0.97193908  0.87831458    -0.07700
C2332       C  0.54928243  0.95143714  0.89986639     0.04300
C2333       C  0.56379844  0.94696830  0.92354898    -0.14900
C2334       C  0.58798129  0.96368362  0.92582822    -0.08300
C2335       C  0.59358642  0.00999247  0.85698217     0.05200
C2336       C  0.60421576  0.01084900  0.82362710    -0.09400
C2337       C  0.61651420  0.03237723  0.80445593     0.00200
C2338       C  0.61834371  0.05349896  0.81887753     0.00100
C2339       C  0.60638193  0.05205050  0.85119182    -0.12900
C2340       C  0.59426826  0.03072215  0.87020771     0.00600
C2341       C  0.62840125  0.03261707  0.77155127     0.39900
C2342       C  0.58376712  0.03074501  0.90440218     0.36500
C2343       C  0.62307274  0.00018016  0.90615401     0.36200
C2344       C  0.52418916  0.93502805  0.89706824     0.37000
N2345       N  0.63794401  0.03285011  0.74515255    -0.43800
N2346       N  0.57538933  0.03056991  0.93192396    -0.44300
N2347       N  0.50405936  0.92194648  0.89501148    -0.41600
N2348       N  0.64323377  0.01317967  0.90778681    -0.43100
H2349       H  0.59938331  0.96016534  0.94323995     0.13100
H2350       H  0.54791873  0.97524896  0.86025473     0.09600
H2351       H  0.60370624  0.99487576  0.81328188     0.10700
H2352       H  0.60735673  0.06799621  0.86259170     0.16500
C2353       C  0.51713815  0.79748183  0.60557073    -0.01700
C2354       C  0.53333741  0.78932094  0.59800428     0.06900
C2355       C  0.54917532  0.79950057  0.56935266    -0.07700
C2356       C  0.54822577  0.81656294  0.54717471     0.04300
C2357       C  0.53147062  0.82412828  0.55386081    -0.14900
C2358       C  0.51647795  0.81496916  0.58372900    -0.08300
C2359       C  0.53257070  0.76858361  0.61696032     0.05200
C2360       C  0.51358559  0.74587402  0.60987654    -0.09400
C2361       C  0.51286663  0.72554290  0.62462745     0.00200
C2362       C  0.53149758  0.72764491  0.64724500     0.00100
C2363       C  0.55058640  0.75046603  0.65420841    -0.12900
C2364       C  0.55118018  0.77082675  0.63939647     0.00600
C2365       C  0.49320418  0.70269595  0.61474760     0.39900
C2366       C  0.57073666  0.79392359  0.64818241     0.36500
C2367       C  0.50060004  0.78763516  0.63492368     0.36200
C2368       C  0.56411020  0.82549045  0.51683650     0.37000
N2369       N  0.47748358  0.68439109  0.60680673    -0.43800
N2370       N  0.58630069  0.81250988  0.65527984    -0.44300
N2371       N  0.57678824  0.83261246  0.49249047    -0.41600
N2372       N  0.48732137  0.77971658  0.65844173    -0.43100
H2373       H  0.50335721  0.82044331  0.58875450     0.13100
H2374       H  0.56159068  0.79326878  0.56327761     0.09600
H2375       H  0.49947019  0.74400232  0.59205426     0.10700
H2376       H  0.56485159  0.75244713  0.67174812     0.16500
C2377       C  0.51863003  0.76399640  0.89757090    -0.01700
C2378       C  0.53591601  0.76596052  0.87276303     0.06900
C2379       C  0.55523386  0.78850885  0.86549267    -0.07700
C2380       C  0.55672805  0.80907166  0.88091511     0.04300
C2381       C  0.53835681  0.80717203  0.90351686    -0.14900
C2382       C  0.51990314  0.78444834  0.91246614    -0.08300
C2383       C  0.53233130  0.74516592  0.85086309     0.05200
C2384       C  0.51200405  0.73404536  0.82916445    -0.09400
C2385       C  0.50800505  0.71513069  0.80666789     0.00200
C2386       C  0.52470452  0.70707197  0.80515666     0.00100
C2387       C  0.54465066  0.71754069  0.82786786    -0.12900
C2388       C  0.54869076  0.73666396  0.85040613     0.00600
C2389       C  0.48641951  0.70409913  0.78567624     0.39900
C2390       C  0.56972259  0.74738962  0.87257239     0.36500
C2391       C  0.49908849  0.74115795  0.90752140     0.36200
C2392       C  0.57649522  0.83182661  0.87137799     0.37000
N2393       N  0.46912860  0.69516706  0.76888467    -0.43800
N2394       N  0.58659807  0.75610441  0.89031588    -0.44300
N2395       N  0.59239145  0.85006933  0.86384316    -0.41600
N2396       N  0.48343339  0.72284562  0.91540663    -0.43100
H2397       H  0.50601782  0.78263875  0.93062105     0.13100
H2398       H  0.56858857  0.79014885  0.84638808     0.09600
H2399       H  0.49932630  0.74044634  0.82941186     0.10700
H2400       H  0.55757642  0.71147948  0.82686042     0.16500
C2401       C  0.81911413  0.92731695  0.51492502    -0.01700
C2402       C  0.80653627  0.92311236  0.48239390     0.06900
C2403       C  0.79775679  0.93825613  0.47215002    -0.07700
C2404       C  0.80060722  0.95700641  0.49465649     0.04300
C2405       C  0.81232345  0.96063045  0.52824621    -0.14900
C2406       C  0.82193799  0.94587298  0.53735201    -0.08300
C2407       C  0.80223164  0.90385662  0.95348111     0.05200
C2408       C  0.78337206  0.88174301  0.96376180    -0.09400
C2409       C  0.78098148  0.86053591  0.94953245     0.00200
C2410       C  0.79799947  0.86133220  0.92506448     0.00100
C2411       C  0.81595380  0.88358732  0.91309206    -0.12900
C2412       C  0.81797395  0.90473663  0.92669812     0.00600
C2413       C  0.76181849  0.83827511  0.96216632     0.39900
C2414       C  0.83754878  0.92683771  0.42260727     0.36500
C2415       C  0.82886480  0.91243095  0.52621394     0.36200
C2416       C  0.79017385  0.97123808  0.48337644     0.37000
N2417       N  0.74641481  0.82039481  0.97213308    -0.43800
N2418       N  0.85293361  0.94512150  0.41395885    -0.44300
N2419       N  0.78168286  0.98254223  0.47432592    -0.41600
N2420       N  0.83664883  0.90048597  0.53520935    -0.43100
H2421       H  0.83133164  0.94842873  0.56259162     0.13100
H2422       H  0.77700333  0.92704501  0.95136899     0.09600
H2423       H  0.77110032  0.88102130  0.98420387     0.10700
H2424       H  0.82872285  0.88445949  0.89343842     0.16500
C2425       C  0.77779004  0.90061637  0.71402307    -0.01700
C2426       C  0.79708535  0.89628048  0.71154925     0.06900
C2427       C  0.81667941  0.91132625  0.69065697    -0.07700
C2428       C  0.81810325  0.93152808  0.67439424     0.04300
C2429       C  0.79946492  0.93689414  0.67880395    -0.14900
C2430       C  0.77903250  0.92071333  0.69749491    -0.08300
C2431       C  0.79903213  0.87877112  0.73508613     0.05200
C2432       C  0.79927014  0.85886454  0.72024802    -0.09400
C2433       C  0.80270248  0.84302417  0.74220963     0.00200
C2434       C  0.80606197  0.84718669  0.77971940     0.00100
C2435       C  0.80592076  0.86734633  0.79405527    -0.12900
C2436       C  0.80267724  0.88306454  0.77226480     0.00600
C2437       C  0.80340108  0.82324711  0.72533923     0.39900
C2438       C  0.80407373  0.90404394  0.78861859     0.36500
C2439       C  0.75705982  0.88528327  0.73483527     0.36200
C2440       C  0.83916356  0.94654883  0.65397901     0.37000
N2441       N  0.80404220  0.80746310  0.71166378    -0.43800
N2442       N  0.80524946  0.92087089  0.80166514    -0.44300
N2443       N  0.85611249  0.95857579  0.63778033    -0.41600
N2444       N  0.74052044  0.87305151  0.75169345    -0.43100
H2445       H  0.76445518  0.92432403  0.70070834     0.13100
H2446       H  0.83149771  0.90796752  0.68867014     0.09600
H2447       H  0.79701218  0.85586520  0.69148121     0.10700
H2448       H  0.80840172  0.87105516  0.82264753     0.16500
C2449       C  0.77242197  0.07662654  0.69662404    -0.01700
C2450       C  0.74924568  0.07190164  0.68854806     0.06900
C2451       C  0.73714770  0.05664378  0.65960750    -0.07700
C2452       C  0.74735553  0.04521297  0.64006757     0.04300
C2453       C  0.76999300  0.04876670  0.64975089    -0.14900
C2454       C  0.78245973  0.06500116  0.67753819    -0.08300
C2455       C  0.73716450  0.08214821  0.71072282     0.05200
C2456       C  0.74175512  0.10538720  0.70402093    -0.09400
C2457       C  0.72987322  0.11516246  0.72314981     0.00200
C2458       C  0.71286842  0.10160853  0.74957719     0.00100
C2459       C  0.70928347  0.07882631  0.75770865    -0.12900
C2460       C  0.72129461  0.06908893  0.73860496     0.00600
C2461       C  0.73567107  0.13933965  0.71551630     0.39900
C2462       C  0.71683353  0.04551061  0.74762600     0.36500
C2463       C  0.78584883  0.09256960  0.72546592     0.36200
C2464       C  0.73363279  0.02878949  0.61188872     0.37000
N2465       N  0.74067361  0.15884920  0.70968667    -0.43800
N2466       N  0.71335896  0.02664249  0.75491570    -0.44300
N2467       N  0.72262342  0.01573142  0.58918050    -0.41600
N2468       N  0.79665095  0.10538709  0.74853628    -0.43100
H2469       H  0.79982828  0.06786266  0.68542567     0.13100
H2470       H  0.71939276  0.05313349  0.65294047     0.09600
H2471       H  0.75442988  0.11581076  0.68337543     0.10700
H2472       H  0.69619265  0.06813634  0.77770525     0.16500
C2473       C  0.68380148  0.94641724  0.58144597    -0.01700
C2474       C  0.68002168  0.93181680  0.55103330     0.06900
C2475       C  0.69844114  0.92794442  0.53951791    -0.07700
C2476       C  0.72064253  0.93915485  0.55672744     0.04300
C2477       C  0.72503088  0.95513748  0.58563367    -0.14900
C2478       C  0.70612725  0.95790699  0.59843765    -0.08300
C2479       C  0.65696815  0.92044210  0.53104578     0.05200
C2480       C  0.65479795  0.93057774  0.99722014    -0.09400
C2481       C  0.63287419  0.92149485  0.97916653     0.00200
C2482       C  0.61247372  0.90195972  0.99369649     0.00100
C2483       C  0.61495286  0.89153609  0.52716512    -0.12900
C2484       C  0.63683376  0.90049679  0.54489450     0.00600
C2485       C  0.63153531  0.93356256  0.94730917     0.39900
C2486       C  0.63817163  0.88910490  0.57756296     0.36500
C2487       C  0.66521512  0.95049695  0.59489961     0.36200
C2488       C  0.73832542  0.93318198  0.54506730     0.37000
N2489       N  0.63054543  0.94330252  0.92177478    -0.43800
N2490       N  0.63927254  0.87994044  0.60369196    -0.44300
N2491       N  0.75217436  0.92786424  0.53602083    -0.41600
N2492       N  0.65264429  0.96163969  0.09270379    -0.43100
H2493       H  0.70907506  0.96992225  0.62063888     0.13100
H2494       H  0.69545482  0.91612036  0.51699724     0.09600
H2495       H  0.67019555  0.94607641  0.98662979     0.10700
H2496       H  0.59952172  0.87665465  0.53895544     0.16500
C2497       C  0.52437938  0.13749887  0.69011626    -0.01700
C2498       C  0.53676934  0.12581303  0.67835026     0.06900
C2499       C  0.53151373  0.11488713  0.64452184    -0.07700
C2500       C  0.51580485  0.11719306  0.62120979     0.04300
C2501       C  0.50521926  0.13096293  0.63141448    -0.14900
C2502       C  0.50875926  0.14009576  0.66653892    -0.08300
C2503       C  0.55718972  0.12697199  0.69851033     0.05200
C2504       C  0.55641729  0.10592329  0.71023071    -0.09400
C2505       C  0.57657673  0.10612874  0.72480658     0.00200
C2506       C  0.59819578  0.12782532  0.72759182     0.00100
C2507       C  0.59858747  0.14887959  0.71646310    -0.12900
C2508       C  0.57855211  0.14860219  0.70181501     0.00600
C2509       C  0.57444344  0.08380942  0.73636557     0.39900
C2510       C  0.58082254  0.17059903  0.68823501     0.36500
C2511       C  0.52778287  0.14724029  0.72596292     0.36200
C2512       C  0.51089300  0.10520252  0.58686462     0.37000
N2513       N  0.57266483  0.06588206  0.74560802    -0.43800
N2514       N  0.58267698  0.18820822  0.67725548    -0.44300
N2515       N  0.50693504  0.09529338  0.55961789    -0.41600
N2516       N  0.53044105  0.15489545  0.75480728    -0.43100
H2517       H  0.50028474  0.15019389  0.67493175     0.13100
H2518       H  0.54053252  0.10539811  0.63565530     0.09600
H2519       H  0.54007242  0.08917329  0.70727105     0.10700
H2520       H  0.61489786  0.16575946  0.71813103     0.16500
C2521       C  0.59398029  0.11512218  0.92296140    -0.01700
C2522       C  0.58657284  0.13239779  0.92446200     0.06900
C2523       C  0.59923114  0.15351983  0.90494669    -0.07700
C2524       C  0.61810424  0.15714127  0.88277963     0.04300
C2525       C  0.62483173  0.13941873  0.87979593    -0.14900
C2526       C  0.61305603  0.11878565  0.90078835    -0.08300
C2527       C  0.56579221  0.12932801  0.94586452     0.05200
C2528       C  0.56947949  0.14625994  0.97240130    -0.09400
C2529       C  0.55040194  0.14669777  0.98931717     0.00200
C2530       C  0.52686618  0.12958703  0.98032485     0.00100
C2531       C  0.52315549  0.11187379  0.95505506    -0.12900
C2532       C  0.54232160  0.11191010  0.93729815     0.00600
C2533       C  0.55520871  0.16476245  0.51553155     0.39900
C2534       C  0.53738096  0.09515578  0.90840625     0.36500
C2535       C  0.58223748  0.09354168  0.94372960     0.36200
C2536       C  0.63029884  0.17928116  0.86330524     0.37000
N2537       N  0.55948011  0.17954272  0.53658425    -0.43800
N2538       N  0.53342617  0.08182274  0.88510417    -0.44300
N2539       N  0.64005965  0.19705091  0.84780363    -0.41600
N2540       N  0.57276122  0.07621158  0.96033241    -0.43100
H2541       H  0.61808417  0.10506816  0.89869503     0.13100
H2542       H  0.59394618  0.16708326  0.90639131     0.09600
H2543       H  0.58742073  0.15978562  0.97897658     0.10700
H2544       H  0.50521646  0.09882833  0.94757055     0.16500
C2545       C  0.48207188  0.20282117  0.89169471    -0.01700
C2546       C  0.46691142  0.21215620  0.89992133     0.06900
C2547       C  0.45127401  0.20268588  0.92892665    -0.07700
C2548       C  0.45174930  0.18547133  0.95122422     0.04300
C2549       C  0.46784258  0.17711587  0.94433706    -0.14900
C2550       C  0.48235814  0.18529999  0.91385137    -0.08300
C2551       C  0.46856283  0.23335756  0.88136723     0.05200
C2552       C  0.44916515  0.23128911  0.86145891    -0.09400
C2553       C  0.44934436  0.25140032  0.84654795     0.00200
C2554       C  0.46921193  0.27420003  0.85178397     0.00100
C2555       C  0.48866210  0.27606223  0.87145185    -0.12900
C2556       C  0.48841926  0.25605247  0.88639755     0.00600
C2557       C  0.42921665  0.24802794  0.82533315     0.39900
C2558       C  0.50830566  0.25941779  0.90829793     0.36500
C2559       C  0.49799952  0.21154672  0.86145155     0.36200
C2560       C  0.43595943  0.17706267  0.98170887     0.37000
N2561       N  0.41311374  0.24532793  0.80823315    -0.43800
N2562       N  0.52421094  0.26212137  0.92590534    -0.44300
N2563       N  0.42517053  0.17291467  0.50890150    -0.41600
N2564       N  0.51081719  0.21858416  0.83726145    -0.43100
H2565       H  0.49482286  0.17901965  0.90852488     0.13100
H2566       H  0.43948860  0.20964838  0.93525346     0.09600
H2567       H  0.43373816  0.21386234  0.85777605     0.10700
H2568       H  0.50404017  0.29340530  0.87600699     0.16500
C2569       C  0.45181663  0.21547299  0.64334135    -0.01700
C2570       C  0.46903149  0.23859093  0.63274590     0.06900
C2571       C  0.48395041  0.24116113  0.60377674    -0.07700
C2572       C  0.48230017  0.22122516  0.58596173     0.04300
C2573       C  0.46552919  0.19806579  0.59719797    -0.14900
C2574       C  0.45002849  0.19550204  0.62533939    -0.08300
C2575       C  0.47308024  0.26013957  0.65335964     0.05200
C2576       C  0.49426527  0.27270011  0.67283359    -0.09400
C2577       C  0.49808554  0.29168089  0.69535374     0.00200
C2578       C  0.48066648  0.29878167  0.69826562     0.00100
C2579       C  0.46005000  0.28712957  0.67715294    -0.12900
C2580       C  0.45606626  0.26781894  0.65504452     0.00600
C2581       C  0.51999135  0.30348621  0.71547529     0.39900
C2582       C  0.43420113  0.25582024  0.63494884     0.36500
C2583       C  0.43672589  0.21178724  0.67393686     0.36200
C2584       C  0.49775550  0.22501852  0.55578448     0.37000
N2585       N  0.53750848  0.31294974  0.73166825    -0.43800
N2586       N  0.41661607  0.24606485  0.61898680    -0.44300
N2587       N  0.51004078  0.22804227  0.53148030    -0.41600
N2588       N  0.42467962  0.20893873  0.69848915    -0.43100
H2589       H  0.43723865  0.17785343  0.63440938     0.13100
H2590       H  0.49715114  0.25882757  0.59537935     0.09600
H2591       H  0.50755217  0.26710742  0.67138109     0.10700
H2592       H  0.44651307  0.29233333  0.67928811     0.16500
C2593       C  0.31231490  0.05064413  0.92297074    -0.01700
C2594       C  0.31666775  0.06888074  0.94801351     0.06900
C2595       C  0.29887352  0.07494713  0.95387046    -0.07700
C2596       C  0.27686499  0.06269690  0.93617432     0.04300
C2597       C  0.27228238  0.04398976  0.91195476    -0.14900
C2598       C  0.29034758  0.03847391  0.90517702    -0.08300
C2599       C  0.34003679  0.08219581  0.96702387     0.05200
C2600       C  0.36030637  0.09564982  0.94638133    -0.09400
C2601       C  0.38298186  0.10605928  0.96170400     0.00200
C2602       C  0.38568317  0.10371352  0.49905197     0.00100
C2603       C  0.36515214  0.09103335  0.51997523    -0.12900
C2604       C  0.34268630  0.08065428  0.00455986     0.00600
C2605       C  0.40273542  0.11911917  0.93778954     0.39900
C2606       C  0.32232538  0.06743346  0.02722422     0.36500
C2607       C  0.32978180  0.04334076  0.91638156     0.36200
C2608       C  0.25932453  0.06990283  0.94273667     0.37000
N2609       N  0.41836625  0.12932370  0.91822128    -0.43800
N2610       N  0.30597833  0.05687747  0.04539633    -0.44300
N2611       N  0.24534791  0.07583463  0.94762291    -0.41600
N2612       N  0.34451190  0.03890977  0.41024126    -0.43100
H2613       H  0.28688579  0.02381947  0.88734954     0.13100
H2614       H  0.30217679  0.08925597  0.97233002     0.09600
H2615       H  0.35840437  0.09741369  0.91772761     0.10700
H2616       H  0.36686662  0.08817089  0.54828517     0.16500
C2617       C  0.18599409  0.07257498  0.98758246    -0.01700
C2618       C  0.20045970  0.07690605  0.01806153     0.06900
C2619       C  0.20784620  0.06092350  0.52581319    -0.07700
C2620       C  0.20343766  0.04146352  0.00440718     0.04300
C2621       C  0.18938693  0.03744140  0.97310523    -0.14900
C2622       C  0.18053077  0.05304192  0.96565956    -0.08300
C2623       C  0.20485224  0.09735778  0.53994402     0.05200
C2624       C  0.18788844  0.09491006  0.56525569    -0.09400
C2625       C  0.18862175  0.11488439  0.58114099     0.00200
C2626       C  0.20683147  0.13797269  0.57192244     0.00100
C2627       C  0.22495540  0.14025837  0.54878365    -0.12900
C2628       C  0.22391525  0.12014418  0.53242777     0.00600
C2629       C  0.16990565  0.11104804  0.60586410     0.39900
C2630       C  0.24238842  0.12366896  0.00692089     0.36500
C2631       C  0.17678517  0.08821720  0.97799527     0.36200
C2632       C  0.21341727  0.02647098  0.01365440     0.37000
N2633       N  0.15477695  0.10783457  0.62547283    -0.43800
N2634       N  0.25637894  0.12629278  0.98547498    -0.44300
N2635       N  0.22145814  0.01448419  0.02109902    -0.41600
N2636       N  0.16946177  0.10079092  0.97038798    -0.43100
H2637       H  0.16959939  0.05033630  0.94205025     0.13100
H2638       H  0.21866052  0.06425691  0.54973722     0.09600
H2639       H  0.17318624  0.07739516  0.57090479     0.10700
H2640       H  0.23903853  0.15778562  0.54159507     0.16500
C2641       C  0.17405510  0.08072104  0.79844355    -0.01700
C2642       C  0.19554140  0.10125595  0.79040420     0.08700
C2643       C  0.21695572  0.10219543  0.80001497    -0.07700
C2644       C  0.21726826  0.08256856  0.81575400     0.04300
C2645       C  0.19568485  0.06134922  0.82213500    -0.14900
C2646       C  0.17426482  0.06117017  0.81436259    -0.08300
C2647       C  0.19605867  0.11979329  0.76613874     0.05200
C2648       C  0.19012099  0.13674531  0.77878058    -0.09400
C2649       C  0.18913812  0.15331379  0.75510819     0.00200
C2650       C  0.19395671  0.15278972  0.71813659     0.00100
C2651       C  0.20011050  0.13586296  0.70601637    -0.12900
C2652       C  0.20118280  0.11956637  0.72945366     0.00600
C2653       C  0.18209987  0.16977841  0.76906375     0.39900
C2654       C  0.20683422  0.10216525  0.71496089     0.36500
C2655       C  0.15158141  0.07865652  0.78825050     0.36200
C2656       C  0.24004538  0.08469000  0.82388646     0.37000
N2657       N  0.17640390  0.18294838  0.78025945    -0.43800
N2658       N  0.21132189  0.08817890  0.70347535    -0.44300
N2659       N  0.25836895  0.08651255  0.83029132    -0.41600
N2660       N  0.13355925  0.07691839  0.77994781    -0.43100
H2661       H  0.15747328  0.04533267  0.81933940     0.13100
H2662       H  0.23352544  0.11794458  0.79356303     0.09600
H2663       H  0.18589347  0.13676069  0.80698441     0.10700
H2664       H  0.20403889  0.13521528  0.67781105     0.16500
C2665       C  0.43285546  0.84787878  0.55167991    -0.01700
C2666       C  0.42980881  0.86805474  0.55049586     0.06900
C2667       C  0.44742068  0.88894134  0.53446998    -0.07700
C2668       C  0.46774466  0.88991566  0.51938530     0.04300
C2669       C  0.47068838  0.86956928  0.52008046    -0.14900
C2670       C  0.45291292  0.84870131  0.53622233    -0.08300
C2671       C  0.40976378  0.86842335  0.56940060     0.05200
C2672       C  0.41499188  0.88313385  0.59961833    -0.09400
C2673       C  0.39694307  0.88157256  0.62186129     0.00200
C2674       C  0.37304171  0.86526665  0.61373398     0.00100
C2675       C  0.36759791  0.85180384  0.58203495    -0.12900
C2676       C  0.38579714  0.85320105  0.55988931     0.00600
C2677       C  0.40347458  0.89632410  0.65371166     0.39900
C2678       C  0.37952843  0.83830758  0.52829986     0.36500
C2679       C  0.41628749  0.82650284  0.57029735     0.36200
C2680       C  0.48417974  0.91092167  0.00165541     0.37000
N2681       N  0.40876201  0.90816192  0.67918029    -0.43800
N2682       N  0.37450484  0.82626554  0.50308476    -0.44300
N2683       N  0.49769659  0.92856211  0.98820552    -0.41600
N2684       N  0.40303408  0.80940763  0.58527065    -0.43100
H2685       H  0.45491752  0.83297578  0.53767036     0.13100
H2686       H  0.44537776  0.90466999  0.53413941     0.09600
H2687       H  0.43330941  0.89500466  0.60689278     0.10700
H2688       H  0.34929721  0.83922268  0.57574022     0.16500
C2689       C  0.42382162  0.85358838  0.77043852    -0.01700
C2690       C  0.43934087  0.87211470  0.79332054     0.06900
C2691       C  0.43610692  0.89192669  0.79794272    -0.07700
C2692       C  0.41661658  0.89260448  0.78232262     0.04300
C2693       C  0.39962984  0.87284696  0.76234242    -0.14900
C2694       C  0.40415767  0.85398413  0.75544637    -0.08300
C2695       C  0.45582082  0.86883793  0.81766259     0.05200
C2696       C  0.48027647  0.88025038  0.81094352    -0.09400
C2697       C  0.49577161  0.87709402  0.83420115     0.00200
C2698       C  0.48672643  0.86233950  0.86492816     0.00100
C2699       C  0.46212988  0.85081792  0.87097035    -0.12900
C2700       C  0.44683193  0.85397457  0.84792343     0.00600
C2701       C  0.52081042  0.88990603  0.82658830     0.39900
C2702       C  0.42186335  0.84212539  0.85632461     0.36500
C2703       C  0.42719174  0.83344272  0.76337713     0.36200
C2704       C  0.41392955  0.91318943  0.78897166     0.37000
N2705       N  0.54088646  0.90020696  0.82044862    -0.43800
N2706       N  0.40185261  0.83269964  0.86291148    -0.44300
N2707       N  0.41188640  0.92977685  0.79415931    -0.41600
N2708       N  0.43000067  0.81736851  0.75768330    -0.43100
H2709       H  0.39187954  0.83905245  0.73912709     0.13100
H2710       H  0.44809800  0.90629581  0.81539532     0.09600
H2711       H  0.48725714  0.89172077  0.78766500     0.10700
H2712       H  0.45468484  0.83941680  0.89422128     0.16500
C2713       C  0.26399467  0.94751637  0.83498910    -0.01700
C2714       C  0.25230806  0.93139829  0.80650959     0.06900
C2715       C  0.22868673  0.92477846  0.79885648    -0.07700
C2716       C  0.21706948  0.93490127  0.81752448     0.04300
C2717       C  0.22900059  0.95186845  0.84494698    -0.14900
C2718       C  0.25225500  0.95752058  0.85407322    -0.08300
C2719       C  0.26400738  0.92083407  0.78443261     0.05200
C2720       C  0.25630262  0.89649447  0.78785176    -0.09400
C2721       C  0.26682703  0.88572911  0.76790361     0.00200
C2722       C  0.28537557  0.89931383  0.74374363     0.00100
C2723       C  0.29216130  0.92338138  0.73870008    -0.12900
C2724       C  0.28165412  0.93421090  0.75881992     0.00600
C2725       C  0.25819577  0.86060081  0.77242475     0.39900
C2726       C  0.28923673  0.95901596  0.75283672     0.36500
C2727       C  0.28809529  0.95433210  0.84469202     0.36200
C2728       C  0.19294251  0.92783954  0.80749948     0.37000
N2729       N  0.25108334  0.84040551  0.77574026    -0.43800
N2730       N  0.29526797  0.97888588  0.74800054    -0.44300
N2731       N  0.17361484  0.92207606  0.79932927    -0.41600
N2732       N  0.30742489  0.95987491  0.85256085    -0.43100
H2733       H  0.26171423  0.97075552  0.87465817     0.13100
H2734       H  0.21948588  0.91210488  0.77748834     0.09600
H2735       H  0.24222687  0.88593422  0.80662316     0.10700
H2736       H  0.30645151  0.93399615  0.72028313     0.16500
C2737       C  0.43160327  0.03313459  0.63129641    -0.01700
C2738       C  0.41321824  0.01190270  0.61682873     0.06900
C2739       C  0.40507003  0.01222955  0.58175019    -0.07700
C2740       C  0.41424295  0.03343648  0.56181207     0.04300
C2741       C  0.43163451  0.05496400  0.57723065    -0.14900
C2742       C  0.44047185  0.05433341  0.61169435    -0.08300
C2743       C  0.40210177  0.98921198  0.63775296     0.05200
C2744       C  0.38966616  0.98742643  0.66967944    -0.09400
C2745       C  0.37713741  0.96562787  0.68798628     0.00200
C2746       C  0.37656501  0.94500176  0.67391616     0.00100
C2747       C  0.38997642  0.94721727  0.64295765    -0.12900
C2748       C  0.40288167  0.96900727  0.62529226     0.00600
C2749       C  0.36401310  0.96467143  0.71985096     0.39900
C2750       C  0.41704742  0.97031308  0.59455963     0.36500
C2751       C  0.44190041  0.03354656  0.66597696     0.36200
C2752       C  0.40466313  0.03277234  0.52647236     0.37000
N2753       N  0.35359750  0.96392684  0.74551596    -0.43800
N2754       N  0.42859495  0.97152671  0.57009734    -0.44300
N2755       N  0.39703036  0.03216096  0.49805768    -0.41600
N2756       N  0.45027354  0.03385032  0.69365697    -0.43100
H2757       H  0.45412280  0.07064331  0.62370634     0.13100
H2758       H  0.39110991  0.99593348  0.57022506     0.09600
H2759       H  0.38915390  0.00295663  0.67971471     0.10700
H2760       H  0.39002055  0.93166564  0.63197953     0.16500
C2761       C  0.92999698  0.78043097  0.76326874    -0.01700
C2762       C  0.92083534  0.79624797  0.76278821     0.06900
C2763       C  0.93196130  0.81689699  0.74192123    -0.07700
C2764       C  0.95104936  0.82125613  0.71989145     0.04300
C2765       C  0.95928458  0.80464338  0.71833434    -0.14900
C2766       C  0.94925343  0.78478780  0.74116396    -0.08300
C2767       C  0.89973399  0.79217312  0.78361146     0.05200
C2768       C  0.90291960  0.80796301  0.81157970    -0.09400
C2769       C  0.88355983  0.80831373  0.82732930     0.00200
C2770       C  0.86033527  0.79260249  0.81494946     0.00100
C2771       C  0.85703579  0.77562022  0.78862416    -0.12900
C2772       C  0.87656503  0.77544344  0.77264929     0.00600
C2773       C  0.88818619  0.82526267  0.85584402     0.39900
C2774       C  0.87249897  0.75908938  0.74348650     0.36500
C2775       C  0.91972733  0.75958358  0.78578421     0.36200
C2776       C  0.96181604  0.84290538  0.69901368     0.37000
N2777       N  0.89198547  0.83889751  0.87863004    -0.43800
N2778       N  0.86922347  0.74597907  0.72010928    -0.44300
N2779       N  0.97046905  0.86026785  0.68237583    -0.41600
N2780       N  0.91150310  0.74288972  0.80391022    -0.43100
H2781       H  0.95554243  0.77201834  0.74023565     0.13100
H2782       H  0.92531348  0.82939980  0.74224688     0.09600
H2783       H  0.92072745  0.82076292  0.82008886     0.10700
H2784       H  0.83931699  0.76341091  0.77905164     0.16500
C2785       C  0.90910865  0.81228777  0.54524996    -0.01700
C2786       C  0.88831043  0.79051287  0.53918752     0.06900
C2787       C  0.88774057  0.76928617  0.54944056    -0.07700
C2788       C  0.90779771  0.76945927  0.56435323     0.04300
C2789       C  0.92905756  0.79131069  0.56889830    -0.14900
C2790       C  0.92896954  0.81251213  0.56029967    -0.08300
C2791       C  0.86875831  0.78916559  0.01640671     0.05200
C2792       C  0.86577081  0.77956540  0.98177168    -0.09400
C2793       C  0.85172616  0.78284956  0.95635634     0.00200
C2794       C  0.84041056  0.79611982  0.96539889     0.00100
C2795       C  0.84161433  0.80387348  0.00100897    -0.12900
C2796       C  0.85608753  0.80128062  0.52659879     0.00600
C2797       C  0.84919990  0.77228599  0.92121776     0.39900
C2798       C  0.85790599  0.81076219  0.56235694     0.36500
C2799       C  0.91050396  0.83419355  0.03566838     0.36200
C2800       C  0.90603919  0.74697123  0.57395966     0.37000
N2801       N  0.84713026  0.76356510  0.89327956    -0.43800
N2802       N  0.85942843  0.81844620  0.59097814    -0.44300
N2803       N  0.90454784  0.72891058  0.58166357    -0.41600
N2804       N  0.91199194  0.85215355  0.02735508    -0.43100
H2805       H  0.94490817  0.82953682  0.56377357     0.13100
H2806       H  0.87179159  0.75245648  0.54456987     0.09600
H2807       H  0.87540254  0.77047729  0.97398904     0.10700
H2808       H  0.83248385  0.81352031  0.00842477     0.16500
C2809       C  0.09014626  0.90484678  0.93080704    -0.01700
C2810       C  0.09140492  0.89143929  0.95975019     0.06900
C2811       C  0.11366346  0.89694153  0.97384976    -0.07700
C2812       C  0.13448213  0.91632632  0.96072686     0.04300
C2813       C  0.13312430  0.93054259  0.93294379    -0.14900
C2814       C  0.11088277  0.92418679  0.91769064    -0.08300
C2815       C  0.06937296  0.87421805  0.47890341     0.05200
C2816       C  0.05935625  0.85001936  0.97404630    -0.09400
C2817       C  0.04025471  0.83355370  0.49538962     0.00200
C2818       C  0.03181407  0.84232140  0.52330822     0.00100
C2819       C  0.04125266  0.86701658  0.52677765    -0.12900
C2820       C  0.05978598  0.88287494  0.50500781     0.00600
C2821       C  0.03116774  0.80880556  0.98999519     0.39900
C2822       C  0.06953748  0.90805028  0.51125465     0.36500
C2823       C  0.06764445  0.89975055  0.91540314     0.36200
C2824       C  0.15663346  0.92248376  0.97839420     0.37000
N2825       N  0.02380413  0.78865928  0.98541596    -0.43800
N2826       N  0.07735938  0.92821414  0.51627173    -0.44300
N2827       N  0.17436104  0.92748785  0.99273181    -0.41600
N2828       N  0.04959438  0.89565347  0.90309863    -0.43100
H2829       H  0.10961747  0.93486387  0.89613639     0.13100
H2830       H  0.11463200  0.88689822  0.99659390     0.09600
H2831       H  0.06644412  0.84337042  0.95343592     0.10700
H2832       H  0.03476512  0.87405893  0.54772400     0.16500
C2833       C  0.11133362  0.91571048  0.77484018    -0.01700
C2834       C  0.11691399  0.91627409  0.73819071     0.06900
C2835       C  0.13757988  0.93591895  0.72501923    -0.07700
C2836       C  0.15281247  0.95465618  0.74808115     0.04300
C2837       C  0.14723149  0.95400506  0.78506367    -0.14900
C2838       C  0.12631535  0.93422366  0.79764414    -0.08300
C2839       C  0.10035791  0.89691457  0.71359291     0.05200
C2840       C  0.08538533  0.90114019  0.69122548    -0.09400
C2841       C  0.06626379  0.88241093  0.67325850     0.00200
C2842       C  0.06168691  0.85865143  0.67759346     0.00100
C2843       C  0.07780136  0.85475650  0.69804019    -0.12900
C2844       C  0.09692392  0.87359898  0.71602275     0.00600
C2845       C  0.05153182  0.88825491  0.65094368     0.39900
C2846       C  0.11239270  0.86855757  0.73789009     0.36500
C2847       C  0.08987862  0.89650829  0.78967035     0.36200
C2848       C  0.17375301  0.97424275  0.73292175     0.37000
N2849       N  0.03973551  0.89297274  0.63311884    -0.43800
N2850       N  0.12485753  0.86462975  0.75545813    -0.44300
N2851       N  0.19052988  0.98992470  0.72063887    -0.41600
N2852       N  0.07269347  0.88116586  0.80158345    -0.43100
H2853       H  0.12142572  0.93298375  0.82573414     0.13100
H2854       H  0.14180429  0.93659724  0.69670599     0.09600
H2855       H  0.08799867  0.91901762  0.68910485     0.10700
H2856       H  0.07489522  0.83684824  0.70135700     0.16500
C2857       C  0.10133208  0.73775251  0.53899899    -0.01700
C2858       C  0.08180026  0.73850198  0.52385771     0.06900
C2859       C  0.07299338  0.72772642  0.98996595    -0.07700
C2860       C  0.08323626  0.71598162  0.97150102     0.04300
C2861       C  0.10230569  0.71439521  0.98729252    -0.14900
C2862       C  0.11180549  0.72644884  0.52052976    -0.08300
C2863       C  0.06863596  0.74780196  0.54488743     0.05200
C2864       C  0.07422606  0.77154554  0.54070610    -0.09400
C2865       C  0.06209104  0.78077803  0.56029167     0.00200
C2866       C  0.04399762  0.76611747  0.58451042     0.00100
C2867       C  0.03908564  0.74262339  0.58973351    -0.12900
C2868       C  0.05124105  0.73339919  0.57010655     0.00600
C2869       C  0.06866503  0.80545221  0.55547468     0.39900
C2870       C  0.04516468  0.70890775  0.57542068     0.36500
C2871       C  0.10994243  0.74714468  0.57452360     0.36200
C2872       C  0.07258948  0.70409651  0.93809323     0.37000
N2873       N  0.07410902  0.82528742  0.55190765    -0.43800
N2874       N  0.03944876  0.68858683  0.08009861    -0.44300
N2875       N  0.06399559  0.69446592  0.91138900    -0.41600
N2876       N  0.11664009  0.75447501  0.60313057    -0.43100
H2877       H  0.12638423  0.72540378  0.53324807     0.13100
H2878       H  0.05780427  0.72817691  0.97848181     0.09600
H2879       H  0.08799200  0.78281257  0.52200863     0.10700
H2880       H  0.02493397  0.73113335  0.60773462     0.16500
C2881       C  0.18549434  0.73297938  0.60177617    -0.01700
C2882       C  0.21035693  0.74279283  0.59970902     0.06900
C2883       C  0.21963981  0.73277951  0.57561727    -0.07700
C2884       C  0.20494267  0.71427215  0.55256331     0.04300
C2885       C  0.18014649  0.70536106  0.55283044    -0.14900
C2886       C  0.17060293  0.71442505  0.57832145    -0.08300
C2887       C  0.22757974  0.76336364  0.62194367     0.05200
C2888       C  0.24369717  0.76027470  0.64340700    -0.09400
C2889       C  0.26332434  0.77966983  0.65907505     0.00200
C2890       C  0.26714177  0.80307384  0.65393965     0.00100
C2891       C  0.25013877  0.80601335  0.63425333    -0.12900
C2892       C  0.23069903  0.78650416  0.61789350     0.00600
C2893       C  0.27948348  0.77478808  0.67942290     0.39900
C2894       C  0.21522285  0.79092777  0.59502395     0.36500
C2895       C  0.17491751  0.74157510  0.62769845     0.36200
C2896       C  0.21592462  0.70478432  0.52881060     0.37000
N2897       N  0.29242415  0.77064967  0.69531278    -0.43800
N2898       N  0.20278643  0.79444990  0.57671056    -0.44300
N2899       N  0.22470116  0.69719568  0.50975597    -0.41600
N2900       N  0.16642142  0.74847246  0.64846760    -0.43100
H2901       H  0.15162165  0.70767956  0.57899036     0.13100
H2902       H  0.23865834  0.73982530  0.57431338     0.09600
H2903       H  0.24148028  0.74258410  0.64660728     0.10700
H2904       H  0.25269329  0.82373079  0.62994834     0.16500
C2905       C  0.23943810  0.75401872  0.89463326    -0.01700
C2906       C  0.23760418  0.76958468  0.86987573     0.06900
C2907       C  0.21503913  0.76635587  0.86136482    -0.07700
C2908       C  0.19444659  0.74734784  0.87592571     0.04300
C2909       C  0.19626194  0.73090977  0.89911467    -0.14900
C2910       C  0.21895952  0.73490431  0.90877024    -0.08300
C2911       C  0.25870959  0.78752839  0.84972800     0.05200
C2912       C  0.27108695  0.77946480  0.82816871    -0.09400
C2913       C  0.28991105  0.79516436  0.80658052     0.00200
C2914       C  0.29622864  0.81943341  0.80516257     0.00100
C2915       C  0.28488750  0.82785681  0.82838507    -0.12900
C2916       C  0.26628054  0.81209977  0.85071824     0.00600
C2917       C  0.30288181  0.78601684  0.78674392     0.39900
C2918       C  0.25535627  0.82147873  0.87464544     0.36500
C2919       C  0.26221877  0.75728971  0.90585153     0.36200
C2920       C  0.17178286  0.74454755  0.86511957     0.37000
N2921       N  0.31353144  0.77878775  0.77132592    -0.43800
N2922       N  0.24669077  0.82895211  0.89412001    -0.44300
N2923       N  0.15362644  0.74236329  0.85651649    -0.41600
N2924       N  0.28051906  0.76001026  0.91478605    -0.43100
H2925       H  0.22075555  0.72287437  0.92719954     0.13100
H2926       H  0.21346848  0.77817773  0.84224657     0.09600
H2927       H  0.26578613  0.76072429  0.82780857     0.10700
H2928       H  0.28982470  0.84649895  0.82794798     0.16500
C2929       C  0.89859472  0.62945425  0.69781752    -0.01700
C2930       C  0.91615711  0.65079962  0.71318746     0.06900
C2931       C  0.92276668  0.65063893  0.74924531    -0.07700
C2932       C  0.91296001  0.62939619  0.76937451     0.04300
C2933       C  0.89613998  0.60768321  0.75334909    -0.14900
C2934       C  0.88882459  0.60832812  0.71774141    -0.08300
C2935       C  0.92802635  0.67329296  0.69180977     0.05200
C2936       C  0.92116973  0.69062324  0.69669533    -0.09400
C2937       C  0.93254585  0.71232540  0.67808519     0.00200
C2938       C  0.95146665  0.71724487  0.65444370     0.00100
C2939       C  0.95751234  0.69942242  0.64812284    -0.12900
C2940       C  0.94593148  0.67756993  0.66646606     0.00600
C2941       C  0.92415366  0.72914261  0.68295644     0.39900
C2942       C  0.95328832  0.66011025  0.65985776     0.36500
C2943       C  0.89041740  0.62876498  0.66143536     0.36200
C2944       C  0.92127934  0.63032857  0.80571006     0.37000
N2945       N  0.91717523  0.74245780  0.68632646    -0.43800
N2946       N  0.95915716  0.64609490  0.65449846    -0.44300
N2947       N  0.92793870  0.63113506  0.83487894    -0.41600
N2948       N  0.88381120  0.62820496  0.63230447    -0.43100
H2949       H  0.87567015  0.59207825  0.70495400     0.13100
H2950       H  0.93608642  0.66707066  0.76140542     0.09600
H2951       H  0.90695902  0.68722226  0.71523066     0.10700
H2952       H  0.97207984  0.70300598  0.63021912     0.16500
C2953       C  0.77741985  0.50991953  0.68082048    -0.01700
C2954       C  0.78715612  0.52395047  0.64991829     0.06900
C2955       C  0.81160434  0.53453131  0.64392954    -0.07700
C2956       C  0.82652206  0.53190769  0.66888919     0.04300
C2957       C  0.81691561  0.51870358  0.70086132    -0.14900
C2958       C  0.79221884  0.50741537  0.70582536    -0.08300
C2959       C  0.77208550  0.52920681  0.62558513     0.05200
C2960       C  0.77094984  0.55008019  0.63132785    -0.09400
C2961       C  0.75376021  0.55377040  0.61400703     0.00200
C2962       C  0.73710305  0.53617641  0.59057139     0.00100
C2963       C  0.73963613  0.51619384  0.58266361    -0.12900
C2964       C  0.75687143  0.51258053  0.60004803     0.00600
C2965       C  0.75356494  0.57566819  0.62113691     0.39900
C2966       C  0.75804851  0.49126046  0.59239042     0.36500
C2967       C  0.75234833  0.49876606  0.68821537     0.36200
C2968       C  0.85161784  0.54391096  0.66165706     0.37000
N2969       N  0.75354838  0.59329031  0.62682862    -0.43800
N2970       N  0.75903502  0.47419856  0.58616899    -0.44300
N2971       N  0.87172271  0.55351738  0.65570950    -0.41600
N2972       N  0.73226794  0.48986673  0.69412545    -0.43100
H2973       H  0.78438650  0.49701068  0.72989119     0.13100
H2974       H  0.81910970  0.54536738  0.62013735     0.09600
H2975       H  0.78289424  0.56306586  0.65060413     0.10700
H2976       H  0.72728998  0.50265143  0.56442754     0.16500
C2977       C  0.75948333  0.51892356  0.85815144    -0.01700
C2978       C  0.76190487  0.53647673  0.88315823     0.06900
C2979       C  0.78478988  0.55507673  0.89107258    -0.07700
C2980       C  0.80499849  0.55578626  0.87582098     0.04300
C2981       C  0.80256292  0.53715785  0.85297193    -0.14900
C2982       C  0.77961880  0.51920510  0.84386591    -0.08300
C2983       C  0.74105584  0.53411261  0.90394519     0.05200
C2984       C  0.72739344  0.51305774  0.92318527    -0.09400
C2985       C  0.70819531  0.50985405  0.94430463     0.00200
C2986       C  0.70224762  0.52827056  0.94714948     0.00100
C2987       C  0.71578443  0.54928479  0.92737390    -0.12900
C2988       C  0.73499881  0.55234635  0.90607090     0.00600
C2989       C  0.69629808  0.48814547  0.46383992     0.39900
C2990       C  0.74820659  0.57438898  0.88677997     0.36500
C2991       C  0.73645037  0.50038335  0.84668803     0.36200
C2992       C  0.82795342  0.57520008  0.88552243     0.37000
N2993       N  0.68655336  0.47039671  0.47941008    -0.43800
N2994       N  0.75879111  0.59214812  0.87150611    -0.44300
N2995       N  0.84630788  0.59089231  0.89321310    -0.41600
N2996       N  0.71797751  0.48557169  0.83750019    -0.43100
H2997       H  0.77736762  0.50511822  0.82554614     0.13100
H2998       H  0.78696956  0.56867209  0.91033242     0.09600
H2999       H  0.73210991  0.49906133  0.92230086     0.10700
H3000       H  0.71180513  0.56375247  0.92925365     0.16500
C3001       C  0.96792868  0.56730877  0.88363474    -0.01700
C3002       C  0.98814926  0.58433293  0.86537965     0.06900
C3003       C  0.98587689  0.58964036  0.82938015    -0.07700
C3004       C  0.96354420  0.57933580  0.81231355     0.04300
C3005       C  0.94295747  0.56352071  0.83156257    -0.14900
C3006       C  0.94570821  0.55720290  0.86686328    -0.08300
C3007       C  0.01144418  0.59740631  0.88427910     0.05200
C3008       C  0.02912503  0.59138757  0.87741156    -0.09400
C3009       C  0.05105464  0.60309376  0.89527554     0.00200
C3010       C  0.05566580  0.62126931  0.92055969     0.00100
C3011       C  0.03772065  0.62684899  0.92811790    -0.12900
C3012       C  0.01579434  0.61516295  0.91013957     0.00600
C3013       C  0.06848570  0.59588485  0.88767775     0.39900
C3014       C  0.99825272  0.62222290  0.91765378     0.36500
C3015       C  0.96960251  0.56023520  0.91990821     0.36200
C3016       C  0.96217617  0.58625480  0.77585167     0.37000
N3017       N  0.08257177  0.59109692  0.38034709    -0.43800
N3018       N  0.98413559  0.62783005  0.92352688    -0.44300
N3019       N  0.96103195  0.59171007  0.74656754    -0.41600
N3020       N  0.97112233  0.55462513  0.94893227    -0.43100
H3021       H  0.93027230  0.54469822  0.88193925     0.13100
H3022       H  0.00148354  0.60248607  0.81499156     0.09600
H3023       H  0.02575433  0.57747640  0.85811332     0.10700
H3024       H  0.04122200  0.64112036  0.94678866     0.16500
C3025       C  0.75020059  0.23794372  0.85107238    -0.01700
C3026       C  0.76546049  0.23571582  0.87599512     0.06900
C3027       C  0.76203572  0.21295151  0.88385429    -0.07700
C3028       C  0.74334894  0.19253411  0.86815764     0.04300
C3029       C  0.72765532  0.19471073  0.84386070    -0.14900
C3030       C  0.73162053  0.21761937  0.83528671    -0.08300
C3031       C  0.78328691  0.25651880  0.89706716     0.05200
C3032       C  0.77514347  0.26800379  0.92038758    -0.09400
C3033       C  0.79067356  0.28594883  0.94366087     0.00200
C3034       C  0.81506523  0.29287154  0.94395530     0.00100
C3035       C  0.82352461  0.28254121  0.91887851    -0.12900
C3036       C  0.80779619  0.26421025  0.89590254     0.00600
C3037       C  0.78098870  0.29681333  0.96724628     0.39900
C3038       C  0.81706126  0.25320617  0.87188598     0.36500
C3039       C  0.75310689  0.26092086  0.84158404     0.36200
C3040       C  0.73977930  0.16962023  0.87946049     0.37000
N3041       N  0.77225324  0.30415827  0.48819382    -0.43800
N3042       N  0.82440276  0.24427687  0.85266181    -0.44300
N3043       N  0.73687968  0.15126627  0.88871208    -0.41600
N3044       N  0.75540749  0.27933322  0.83406631    -0.43100
H3045       H  0.71989767  0.21968175  0.81649389     0.13100
H3046       H  0.77341802  0.21106438  0.90352652     0.09600
H3047       H  0.75637374  0.26234360  0.92127340     0.10700
H3048       H  0.84220602  0.28782310  0.91863044     0.16500
C3049       C  0.76012097  0.23829238  0.59370441    -0.01700
C3050       C  0.76184550  0.22580147  0.62354232     0.06900
C3051       C  0.78423115  0.23229644  0.63813296    -0.07700
C3052       C  0.80468516  0.25187439  0.62471458     0.04300
C3053       C  0.80281633  0.26525547  0.59611283    -0.14900
C3054       C  0.78052148  0.25787516  0.58028441    -0.08300
C3055       C  0.74058090  0.20966853  0.64459378     0.05200
C3056       C  0.72703259  0.18549239  0.63568702    -0.09400
C3057       C  0.70800954  0.16990536  0.65759262     0.00200
C3058       C  0.70250514  0.17867359  0.68897551     0.00100
C3059       C  0.71538954  0.20322534  0.69617113    -0.12900
C3060       C  0.73427147  0.21856404  0.67462429     0.00600
C3061       C  0.69555950  0.14498210  0.64842305     0.39900
C3062       C  0.74748899  0.24337457  0.68457168     0.36500
C3063       C  0.73743341  0.23219503  0.57795678     0.36200
C3064       C  0.82690663  0.25916899  0.64298316     0.37000
N3065       N  0.68564657  0.12499611  0.64104260    -0.43800
N3066       N  0.75817203  0.26322463  0.69255786    -0.44300
N3067       N  0.84468585  0.26510538  0.65778903    -0.41600
N3068       N  0.71922470  0.22725690  0.56537225    -0.43100
H3069       H  0.77893402  0.26793383  0.55806612     0.13100
H3070       H  0.78550288  0.22298012  0.66161681     0.09600
H3071       H  0.73178900  0.17869750  0.61231132     0.10700
H3072       H  0.71126834  0.21052063  0.71961604     0.16500
C3073       C  0.84883402  0.42320676  0.73781863    -0.01700
C3074       C  0.86497608  0.42614317  0.71030202     0.06900
C3075       C  0.88290564  0.44915160  0.70174551    -0.07700
C3076       C  0.88415531  0.46918124  0.71874984     0.04300
C3077       C  0.86703034  0.46636747  0.74475265    -0.14900
C3078       C  0.84985579  0.44318534  0.75456970    -0.08300
C3079       C  0.86141990  0.40592205  0.68681631     0.05200
C3080       C  0.84262985  0.39708159  0.66212294    -0.09400
C3081       C  0.83944299  0.37953432  0.63710780     0.00200
C3082       C  0.85511077  0.37005708  0.63674110     0.00100
C3083       C  0.87344768  0.37831140  0.66245027    -0.12900
C3084       C  0.87685529  0.39630415  0.68708140     0.00600
C3085       C  0.81994304  0.37174372  0.61201338     0.39900
C3086       C  0.89641959  0.40484970  0.71207140     0.36500
C3087       C  0.83094537  0.39980880  0.74897008     0.36200
C3088       C  0.90213712  0.49237886  0.70702006     0.37000
N3089       N  0.80439393  0.36564112  0.59181602    -0.43800
N3090       N  0.91212608  0.41172636  0.73209985    -0.44300
N3091       N  0.91652854  0.51098837  0.69761679    -0.41600
N3092       N  0.81675146  0.38102173  0.75803423    -0.43100
H3093       H  0.83685858  0.44065552  0.77493514     0.13100
H3094       H  0.89529325  0.45152156  0.68044599     0.09600
H3095       H  0.83072105  0.40444057  0.66177639     0.10700
H3096       H  0.88573874  0.37142203  0.66233853     0.16500
C3097       C  0.85465684  0.46928241  0.95233382    -0.01700
C3098       C  0.87006029  0.46037694  0.94299746     0.06900
C3099       C  0.88398128  0.46910108  0.91204209    -0.07700
C3100       C  0.88147959  0.48488437  0.88910827     0.04300
C3101       C  0.86483967  0.49240793  0.89695762    -0.14900
C3102       C  0.85222962  0.48529288  0.92934861    -0.08300
C3103       C  0.86895780  0.43916415  0.96091400     0.05200
C3104       C  0.84715050  0.41816268  0.96121269    -0.09400
C3105       C  0.84519699  0.39676241  0.97315015     0.00200
C3106       C  0.86564587  0.39576266  0.98471454     0.00100
C3107       C  0.88753275  0.41697597  0.98491095    -0.12900
C3108       C  0.88929991  0.43853993  0.97332850     0.00600
C3109       C  0.82182711  0.37619764  0.97213194     0.39900
C3110       C  0.91209104  0.45983595  0.97475470     0.36500
C3111       C  0.84039532  0.46137132  0.98446395     0.36200
C3112       C  0.89540666  0.49217163  0.85658537     0.37000
N3113       N  0.80298284  0.35991159  0.97132505    -0.43800
N3114       N  0.93034582  0.47693132  0.97592639    -0.44300
N3115       N  0.90662396  0.49790405  0.83060048    -0.41600
N3116       N  0.82890896  0.45488593  0.01014719    -0.43100
H3117       H  0.83940247  0.49096757  0.93551622     0.13100
H3118       H  0.89568479  0.46229174  0.90437164     0.09600
H3119       H  0.83151689  0.41831372  0.95091722     0.10700
H3120       H  0.90332714  0.41678613  0.99425129     0.16500
C3121       C  0.95128736  0.26689888  0.93169222    -0.01700
C3122       C  0.93084136  0.25135230  0.95136685     0.06900
C3123       C  0.92263218  0.22678180  0.94934836    -0.07700
C3124       C  0.93520292  0.21784016  0.92988032     0.04300
C3125       C  0.95617683  0.23351138  0.91149453    -0.14900
C3126       C  0.96387738  0.25794773  0.91251706    -0.08300
C3127       C  0.91803827  0.26059689  0.97408754     0.05200
C3128       C  0.89473369  0.25473414  0.96512107    -0.09400
C3129       C  0.88338583  0.26566136  0.98269581     0.00200
C3130       C  0.89508852  0.28298209  0.50837390     0.00100
C3131       C  0.91748390  0.28697256  0.51949271    -0.12900
C3132       C  0.92843460  0.27548129  0.50231397     0.00600
C3133       C  0.85911253  0.25834291  0.97335730     0.39900
C3134       C  0.95152535  0.28030875  0.51467227     0.36500
C3135       C  0.95982011  0.29218532  0.93104808     0.36200
C3136       C  0.92670408  0.19256770  0.92989828     0.37000
N3137       N  0.83949930  0.25207067  0.96637905    -0.43800
N3138       N  0.97001645  0.28414139  0.52463150    -0.44300
N3139       N  0.92000371  0.17233184  0.92977901    -0.41600
N3140       N  0.96659397  0.31243428  0.93064731    -0.43100
H3141       H  0.98045215  0.27023495  0.89991758     0.13100
H3142       H  0.90679790  0.21463367  0.96391855     0.09600
H3143       H  0.88566183  0.24217320  0.94356605     0.10700
H3144       H  0.92698739  0.30000959  0.54029677     0.16500
C3145       C  0.08724683  0.20791211  0.77424371    -0.01700
C3146       C  0.08405717  0.20648691  0.73660092     0.06900
C3147       C  0.06192269  0.20159210  0.72243954    -0.07700
C3148       C  0.04317160  0.19820997  0.74520617     0.04300
C3149       C  0.04656713  0.19996699  0.78287928    -0.14900
C3150       C  0.06887078  0.20516542  0.79669907    -0.08300
C3151       C  0.10294573  0.20778922  0.71233392     0.05200
C3152       C  0.09829108  0.18782828  0.69156439    -0.09400
C3153       C  0.11656003  0.18647939  0.67349691     0.00200
C3154       C  0.14024505  0.20518412  0.67687229     0.00100
C3155       C  0.14446001  0.22601605  0.69499275    -0.12900
C3156       C  0.12604553  0.22754959  0.71226336     0.00600
C3157       C  0.11033726  0.16574902  0.65155995     0.39900
C3158       C  0.13138081  0.24942403  0.73033945     0.36500
C3159       C  0.10867215  0.21063935  0.79081887     0.36200
C3160       C  0.02038603  0.19149830  0.72935459     0.37000
N3161       N  0.10527432  0.14921885  0.63376193    -0.43800
N3162       N  0.13571581  0.26695869  0.74486367    -0.44300
N3163       N  0.00207657  0.18591769  0.71657760    -0.41600
N3164       N  0.12578081  0.21277228  0.80416556    -0.43100
H3165       H  0.07189549  0.20651149  0.82553185     0.13100
H3166       H  0.05913266  0.19984685  0.69357998     0.09600
H3167       H  0.08045825  0.17284802  0.69056001     0.10700
H3168       H  0.16231639  0.24087578  0.69683626     0.16500
C3169       C  0.15013338  0.21781173  0.98674141    -0.01700
C3170       C  0.12723153  0.20164949  0.48257694     0.06900
C3171       C  0.12050645  0.17950206  0.49830919    -0.07700
C3172       C  0.13640328  0.17590372  0.51936598     0.04300
C3173       C  0.15971255  0.19465395  0.52498786    -0.14900
C3174       C  0.16705504  0.21634530  0.50720327    -0.08300
C3175       C  0.10764622  0.20221720  0.96492940     0.05200
C3176       C  0.09555892  0.18733563  0.93580824    -0.09400
C3177       C  0.07595065  0.18753718  0.92012908     0.00200
C3178       C  0.06830779  0.20330798  0.93304120     0.00100
C3179       C  0.08083090  0.21871972  0.96151983    -0.12900
C3180       C  0.09997595  0.21789383  0.97803178     0.00600
C3181       C  0.06388337  0.17113543  0.89102509     0.39900
C3182       C  0.11162619  0.23537270  0.50747910     0.36500
C3183       C  0.15776006  0.24042536  0.96950475     0.36200
C3184       C  0.12817152  0.15293209  0.53590978     0.37000
N3185       N  0.05418308  0.15784192  0.86789003    -0.43800
N3186       N  0.11997971  0.24696311  0.53280529    -0.44300
N3187       N  0.12162345  0.13455288  0.54918841    -0.41600
N3188       N  0.16367942  0.25851436  0.95564136    -0.43100
H3189       H  0.18419784  0.22942310  0.01191141     0.13100
H3190       H  0.10241896  0.16517282  0.49525295     0.09600
H3191       H  0.10111171  0.17502188  0.92589740     0.10700
H3192       H  0.07480140  0.23045952  0.97225564     0.16500
C3193       C  0.88366642  0.09857349  0.52328443    -0.01700
C3194       C  0.90654037  0.10423390  0.53517854     0.06900
C3195       C  0.90901777  0.09141834  0.56364451    -0.07700
C3196       C  0.88910463  0.07237199  0.57919414     0.04300
C3197       C  0.86612028  0.06584884  0.56610213    -0.14900
C3198       C  0.86366157  0.07963097  0.53898721    -0.08300
C3199       C  0.92769115  0.12084338  0.01304302     0.05200
C3200       C  0.93706326  0.14583892  0.51961355    -0.09400
C3201       C  0.95538742  0.16188947  0.99666483     0.00200
C3202       C  0.96496329  0.15378395  0.96951987     0.00100
C3203       C  0.95657747  0.12925603  0.96600045    -0.12900
C3204       C  0.93816171  0.11284711  0.98738918     0.00600
C3205       C  0.96311362  0.18681875  0.00148263     0.39900
C3206       C  0.92941602  0.08782335  0.98107534     0.36500
C3207       C  0.88050716  0.11257906  0.99340233     0.36200
C3208       C  0.89286823  0.05980115  0.60840281     0.37000
N3209       N  0.96959482  0.20715141  0.50578803    -0.43800
N3210       N  0.92242921  0.06779629  0.97590525    -0.44300
N3211       N  0.89603211  0.04983510  0.63179583    -0.41600
N3212       N  0.87827735  0.12346186  0.97047912    -0.43100
H3213       H  0.84619968  0.07480385  0.52867652     0.13100
H3214       H  0.92660690  0.09578824  0.57283429     0.09600
H3215       H  0.92924681  0.15219728  0.53948409     0.10700
H3216       H  0.96389609  0.12277980  0.94547525     0.16500
C3217       C  0.92181655  0.10054451  0.78744910    -0.01700
C3218       C  0.90071134  0.10114695  0.78076291     0.06900
C3219       C  0.89906696  0.12108749  0.79177862    -0.07700
C3220       C  0.91826045  0.14052508  0.80863089     0.04300
C3221       C  0.93984694  0.14032917  0.81440840    -0.14900
C3222       C  0.94100217  0.11988252  0.80413524    -0.08300
C3223       C  0.88152330  0.08250684  0.75829348     0.05200
C3224       C  0.86593218  0.06006827  0.77286617    -0.09400
C3225       C  0.84943059  0.04148980  0.75084201     0.00200
C3226       C  0.84856604  0.04531500  0.71357555     0.00100
C3227       C  0.86370887  0.06808259  0.69959378    -0.12900
C3228       C  0.88007019  0.08645853  0.72138159     0.00600
C3229       C  0.83475142  0.01843800  0.76664209     0.39900
C3230       C  0.89612988  0.10889217  0.70480231     0.36500
C3231       C  0.92457681  0.08068705  0.77582670     0.36200
C3232       C  0.91517512  0.16034607  0.81929911     0.37000
N3233       N  0.82301574  0.99993160  0.77931001    -0.43800
N3234       N  0.90907016  0.12681404  0.69147375    -0.44300
N3235       N  0.91262255  0.17618532  0.82787696    -0.41600
N3236       N  0.92676834  0.06478407  0.76640478    -0.43100
H3237       H  0.95718301  0.11911490  0.80829786     0.13100
H3238       H  0.88290178  0.12167923  0.78640510     0.09600
H3239       H  0.86716265  0.05688496  0.80121908     0.10700
H3240       H  0.86324020  0.07142328  0.67107598     0.16500
C3241       C  0.03030799  0.43284089  0.61149439    -0.01700
C3242       C  0.00994029  0.41324943  0.62553050     0.06900
C3243       C  0.01146982  0.40391481  0.65901263    -0.07700
C3244       C  0.03310025  0.41322079  0.67779950     0.04300
C3245       C  0.05372570  0.43236675  0.66314728    -0.14900
C3246       C  0.05184086  0.44220758  0.63027804    -0.08300
C3247       C  0.98692745  0.40203092  0.60564033     0.05200
C3248       C  0.98406413  0.38813096  0.57492047    -0.09400
C3249       C  0.96191435  0.37548090  0.55761992     0.00200
C3250       C  0.94214628  0.37677907  0.57103210     0.00100
C3251       C  0.94548781  0.39164321  0.60076417    -0.12900
C3252       C  0.96751177  0.40414668  0.61798154     0.00600
C3253       C  0.95965796  0.36003517  0.52799279     0.39900
C3254       C  0.96972101  0.41886130  0.64859952     0.36500
C3255       C  0.02953851  0.44364384  0.57787306     0.36200
C3256       C  0.03392727  0.40180047  0.71073114     0.37000
N3257       N  0.95844262  0.34938343  0.00304410    -0.43800
N3258       N  0.97150862  0.43069185  0.67310251    -0.44300
N3259       N  0.03464386  0.39262097  0.73708312    -0.41600
N3260       N  0.02896240  0.45237323  0.55097095    -0.43100
H3261       H  0.06741888  0.45706143  0.61883351     0.13100
H3262       H  0.99583808  0.38887350  0.66999091     0.09600
H3263       H  0.99896978  0.38645062  0.56527768     0.10700
H3264       H  0.93057312  0.39296018  0.61134415     0.16500
C3265       C  0.08454782  0.31094016  0.81741774    -0.01700
C3266       C  0.07338739  0.32329105  0.80316745     0.06900
C3267       C  0.04929389  0.31466590  0.81011346    -0.07700
C3268       C  0.03608653  0.29372615  0.82964916     0.04300
C3269       C  0.04711803  0.28130653  0.84404563    -0.14900
C3270       C  0.07142127  0.29021875  0.83795696    -0.08300
C3271       C  0.08598692  0.34501981  0.78043856     0.05200
C3272       C  0.07808939  0.34474345  0.74497589    -0.09400
C3273       C  0.08661607  0.36578967  0.72475801     0.00200
C3274       C  0.10329110  0.38766440  0.74016436     0.00100
C3275       C  0.11236830  0.38751140  0.77466828    -0.12900
C3276       C  0.10373959  0.36663693  0.79489170     0.00600
C3277       C  0.07672255  0.36461762  0.68950396     0.39900
C3278       C  0.11200275  0.36830276  0.83147824     0.36500
C3279       C  0.10892627  0.31823707  0.80917625     0.36200
C3280       C  0.01080691  0.28436772  0.83176604     0.37000
N3281       N  0.06881119  0.36366102  0.66119714    -0.43800
N3282       N  0.11863509  0.36972196  0.86079804    -0.44300
N3283       N  0.99054263  0.27703779  0.83230530    -0.41600
N3284       N  0.12844710  0.32406793  0.80238418    -0.43100
H3285       H  0.07979805  0.28020159  0.84734264     0.13100
H3286       H  0.04054587  0.32393715  0.79907580     0.09600
H3287       H  0.06444443  0.32817406  0.73366979     0.10700
H3288       H  0.12538303  0.40410028  0.78685742     0.16500
C3289       C  0.20071539  0.45104623  0.80972675    -0.01700
C3290       C  0.20343185  0.45875009  0.84582435     0.06900
C3291       C  0.18975372  0.46875291  0.85850727    -0.07700
C3292       C  0.17426007  0.47194501  0.83545008     0.04300
C3293       C  0.17263770  0.46537315  0.79895636    -0.14900
C3294       C  0.18539006  0.45429178  0.78692042    -0.08300
C3295       C  0.22270042  0.45951211  0.86880346     0.05200
C3296       C  0.24111784  0.48176377  0.87940693    -0.09400
C3297       C  0.26142232  0.48404967  0.89653481     0.00200
C3298       C  0.26387408  0.46362906  0.90290134     0.00100
C3299       C  0.24467182  0.44118505  0.89410308    -0.12900
C3300       C  0.22416277  0.43899336  0.87756422     0.00600
C3301       C  0.27937591  0.50774581  0.90661943     0.39900
C3302       C  0.20486313  0.41553277  0.86971945     0.36500
C3303       C  0.21463035  0.44128210  0.79451871     0.36200
C3304       C  0.16153427  0.48337790  0.84918799     0.37000
N3305       N  0.29360792  0.52677970  0.91475285    -0.43800
N3306       N  0.18937902  0.39675257  0.86334930    -0.44300
N3307       N  0.15130127  0.49253161  0.86016690    -0.41600
N3308       N  0.22561498  0.43332855  0.78217411    -0.43100
H3309       H  0.18406345  0.44891881  0.75894255     0.13100
H3310       H  0.19185799  0.47486853  0.88614482     0.09600
H3311       H  0.23996015  0.49759188  0.87318083     0.10700
H3312       H  0.24575574  0.42525251  0.89961331     0.16500
C3313       C  0.21311331  0.44518728  0.61267358    -0.01700
C3314       C  0.23593721  0.46167440  0.62542095     0.06900
C3315       C  0.23812742  0.47707672  0.65358818    -0.07700
C3316       C  0.21817583  0.47715153  0.66778975     0.04300
C3317       C  0.19545385  0.46160281  0.65360633    -0.14900
C3318       C  0.19310982  0.44510834  0.62710727    -0.08300
C3319       C  0.25763860  0.46579507  0.60603583     0.05200
C3320       C  0.27059091  0.48750303  0.58806740    -0.09400
C3321       C  0.28903681  0.49126896  0.56492820     0.00200
C3322       C  0.29486348  0.47310079  0.55951861     0.00100
C3323       C  0.28336052  0.45217990  0.57987610    -0.12900
C3324       C  0.26471828  0.44835961  0.60299715     0.00600
C3325       C  0.30148567  0.51380125  0.54651066     0.39900
C3326       C  0.25272130  0.42625540  0.62248671     0.36500
C3327       C  0.20983422  0.42939766  0.58303331     0.36200
C3328       C  0.22155412  0.49334840  0.69690427     0.37000
N3329       N  0.30533035  0.52899007  0.02501147    -0.43800
N3330       N  0.24306779  0.40849202  0.63801907    -0.44300
N3331       N  0.22437413  0.50629798  0.72032409    -0.41600
N3332       N  0.20714114  0.41668555  0.55932964    -0.43100
H3333       H  0.17572935  0.43304995  0.61615556     0.13100
H3334       H  0.25561472  0.48970672  0.66358295     0.09600
H3335       H  0.26555627  0.50116806  0.59086881     0.10700
H3336       H  0.28792901  0.43825710  0.57606258     0.16500
C3337       C  0.14941777  0.55224272  0.59196758    -0.01700
C3338       C  0.13267380  0.54353103  0.56385453     0.06900
C3339       C  0.12014028  0.51896447  0.55707275    -0.07700
C3340       C  0.12364839  0.50303062  0.57878230     0.04300
C3341       C  0.13972724  0.51177106  0.60805994    -0.14900
C3342       C  0.15281368  0.53649773  0.61354251    -0.08300
C3343       C  0.12886552  0.56041818  0.54141812     0.05200
C3344       C  0.14681009  0.57494717  0.51755495    -0.09400
C3345       C  0.14733919  0.59500020  0.50232456     0.00200
C3346       C  0.12937219  0.60076357  0.51055744     0.00100
C3347       C  0.11035156  0.58508056  0.53232392    -0.12900
C3348       C  0.11013379  0.56515466  0.54808686     0.00600
C3349       C  0.16706892  0.60968441  0.47926381     0.39900
C3350       C  0.09144102  0.55073072  0.57287278     0.36500
C3351       C  0.16288566  0.57735446  0.59993430     0.36200
C3352       C  0.11003708  0.47794625  0.57107933     0.37000
N3353       N  0.18303298  0.62150589  0.46108830    -0.43800
N3354       N  0.07652132  0.53914079  0.59281824    -0.44300
N3355       N  0.09919680  0.45784867  0.56467318    -0.41600
N3356       N  0.17365957  0.59746685  0.60624738    -0.43100
H3357       H  0.16544016  0.54365731  0.63551730     0.13100
H3358       H  0.10750875  0.51226366  0.53508406     0.09600
H3359       H  0.16125180  0.57135720  0.51248961     0.10700
H3360       H  0.09637811  0.58911731  0.53874089     0.16500
C3361       C  0.14486362  0.59020421  0.84977270    -0.01700
C3362       C  0.13364277  0.58741495  0.81631038     0.06900
C3363       C  0.12620264  0.60361717  0.80589540    -0.07700
C3364       C  0.12944651  0.62232576  0.82884336     0.04300
C3365       C  0.14054799  0.62505337  0.86278660    -0.14900
C3366       C  0.14832559  0.60885766  0.87238990    -0.08300
C3367       C  0.12996825  0.56759627  0.79227214     0.05200
C3368       C  0.11041205  0.54502964  0.79807794    -0.09400
C3369       C  0.10890415  0.52483197  0.78140119     0.00200
C3370       C  0.12740317  0.52716088  0.75867677     0.00100
C3371       C  0.14626639  0.55002802  0.75142053    -0.12900
C3372       C  0.14766313  0.57013631  0.76796484     0.00600
C3373       C  0.08915447  0.50190636  0.79028332     0.39900
C3374       C  0.16805802  0.59305940  0.76120310     0.36500
C3375       C  0.15273467  0.57388346  0.86171248     0.36200
C3376       C  0.12040929  0.63772204  0.81731522     0.37000
N3377       N  0.07332350  0.48353205  0.79743958    -0.43800
N3378       N  0.18439782  0.61143794  0.75581341    -0.44300
N3379       N  0.11306161  0.64998074  0.80801206    -0.41600
N3380       N  0.15896549  0.56077292  0.87131434    -0.43100
H3381       H  0.15689118  0.61041603  0.89810190     0.13100
H3382       H  0.11757373  0.60143404  0.78002782     0.09600
H3383       H  0.09692239  0.54306433  0.81717461     0.10700
H3384       H  0.16044195  0.55214450  0.73365262     0.16500
loop_ 
_geom_bond_atom_site_label_1 
_geom_bond_atom_site_label_2 
_geom_bond_distance 
_geom_bond_site_symmetry_2 
_ccdc_geom_bond_type 
O1          Cr19   1.942       .  S
O1            C9   1.261       .  A
O2          Cr19   1.996       .  S
O2            C3   1.260       .  A
C3            O4   1.258       .  A
C3         C1678   1.485       .  S
O4          Cr20   1.988       .  S
O5          Cr20   2.034       .  S
O5            C6   1.272       .  A
C6            O7   1.255       .  A
C6         C1553   1.493       .  S
O7          Cr21   1.958       .  S
O8          Cr21   2.048       .  S
O8            C9   1.280       .  A
C9         C1649   1.490       .  S
O10         Cr19   1.994       .  S
O10          C18   1.258       .  A
O11         Cr19   1.944       .  S
O11          C12   1.259       .  A
C12          O13   1.277       .  A
C12        C1601   1.480       .  S
O13         Cr20   2.042       .  S
O14         Cr20   1.945       .  S
O14          C15   1.254       .  A
C15          O16   1.273       .  A
C15        C1582   1.492       .  S
O16         Cr21   2.039       .  S
O17         Cr21   1.986       .  S
O17          C18   1.255       .  A
C18        C1625   1.480       .  S
Cr19         O22   1.768       .  S
Cr20         O22   1.770       .  S
Cr21         O22   1.771       .  S
O23         Cr41   1.951   1_655  S
O23          C31   1.263       .  A
O24         Cr41   2.003   1_655  S
O24          C25   1.260       .  A
C25          O26   1.257       .  A
C25        C1529   1.499       .  S
O26         Cr42   1.994       .  S
O27         Cr42   2.038       .  S
O27          C28   1.273       .  A
C28          O29   1.255       .  A
C28        C1433   1.485       .  S
O29         Cr43   1.963   1_655  S
O30         Cr43   2.039   1_655  S
O30          C31   1.278       .  A
C31        C1510   1.483       .  S
O32         Cr41   1.997       .  S
O32          C40   1.259       .  A
O33         Cr41   1.944       .  S
O33          C34   1.260       .  A
C34          O35   1.280       .  A
C34        C1457   1.491       .  S
O35         Cr42   2.051   1_455  S
O36         Cr42   1.956   1_455  S
O36          C37   1.253       .  A
C37          O38   1.271       .  A
C37        C1577   1.479       .  S
O38         Cr43   2.034       .  S
O39         Cr43   1.998       .  S
O39          C40   1.259       .  A
C40        C1486   1.487       .  S
Cr41         O44   1.770       .  S
Cr42         O44   1.774   1_655  S
Cr43         O44   1.774       .  S
O45         Cr63   1.956       .  S
O45        C1745   1.259   1_554  A
O46         Cr63   1.994       .  S
O46          C47   1.261       .  A
C47          O48   1.259       .  A
C47        C1361   1.482       .  S
O48         Cr64   1.987       .  S
O49         Cr64   2.036       .  S
O49          C50   1.272       .  A
C50          O51   1.258   1_554  A
C50        C1438   1.488       .  S
O51       Cr1757   1.969   1_556  S
O52         Cr65   2.042       .  S
O52          C53   1.276       .  A
C53        O1737   1.259       .  A
C53        C1342   1.485       .  S
O54         Cr63   1.989       .  S
O54        C1754   1.259   1_554  A
O55         Cr63   1.960       .  S
O55          C56   1.259       .  A
C56          O57   1.276       .  A
C56        C1390   1.491       .  S
O57         Cr64   2.040       .  S
O58         Cr64   1.960       .  S
O58          C59   1.256       .  A
C59          O60   1.273       .  A
C59        C1558   1.494       .  S
O60       Cr1757   2.042       .  S
O61         Cr65   2.002       .  S
O61          C62   1.263       .  A
C62        O1746   1.259       .  A
C62        C1414   1.494       .  S
Cr63         O66   1.766       .  S
Cr64         O66   1.770       .  S
Cr65       O1743   1.970       .  S
Cr65       O1752   2.040       .  S
Cr65       O1758   1.771       .  S
O66       Cr1757   1.771       .  S
O67         Cr85   2.007       .  S
O67          C75   1.262       .  A
O68         Cr85   1.955       .  S
O68          C69   1.260       .  A
C69          O70   1.275       .  A
C69        C1409   1.477       .  S
O70         Cr86   2.039       .  S
O71         Cr86   1.956       .  S
O71          C72   1.256       .  A
C72          O73   1.272       .  A
C72        C1313   1.498       .  S
O73         Cr87   2.037       .  S
O74         Cr87   1.988       .  S
O74          C75   1.258       .  A
C75        C1385   1.493       .  S
O76         Cr85   1.959       .  S
O76          C84   1.263       .  A
O77         Cr85   2.007       .  S
O77          C78   1.264       .  A
C78          O79   1.259       .  A
C78        C1289   1.492       .  S
O79         Cr86   1.992       .  S
O80         Cr86   2.040       .  S
O80          C81   1.273       .  A
C81          O82   1.256       .  A
C81        C1241   1.498       .  S
O82         Cr87   1.961       .  S
O83         Cr87   2.035       .  S
O83          C84   1.276       .  A
C84        C1265   1.491       .  S
Cr85         O88   1.772       .  S
Cr86         O88   1.776       .  S
Cr87         O88   1.771       .  S
O89        Cr107   2.000       .  S
O89          C97   1.262       .  A
O90        Cr107   1.950       .  S
O90        C1783   1.259       .  A
C91          O92   1.278       .  A
C91        O1782   1.259   1_554  A
C91        C1193   1.487       .  S
O92        Cr108   2.047   1_554  S
O93       Cr1800   1.947       .  S
O93          C94   1.255       .  A
C94          O95   1.273       .  A
C94        C1169   1.489       .  S
O95        Cr109   2.038       .  S
O96        Cr109   1.989       .  S
O96          C97   1.258       .  A
C97        C1217   1.490       .  S
O98        Cr107   1.949       .  S
O98         C106   1.260       .  A
O99        Cr107   1.998       .  S
O99        C1792   1.261       .  A
C100        O101   1.260       .  A
C100       O1791   1.261       .  A
C100       C1654   1.489   1_556  S
O101       Cr108   1.995       .  S
O102      Cr1800   2.040       .  S
O102        C103   1.272       .  A
C103        O104   1.254       .  A
C103       C1318   1.485       .  S
O104       Cr109   1.958       .  S
O105       Cr109   2.041       .  S
O105        C106   1.277       .  A
C106       C1673   1.495       .  S
Cr107       O110   1.761       .  S
Cr108      O1785   1.945       .  S
Cr108      O1794   2.039       .  S
Cr108      O1802   1.770       .  S
Cr109       O110   1.769       .  S
O110      Cr1800   1.769       .  S
O111       Cr129   1.999   1_455  S
O111        C119   1.261       .  A
O112       Cr129   1.951   1_455  S
O112        C113   1.260       .  A
C113        O114   1.276   1_455  A
C113       C1126   1.487       .  S
O114       Cr130   2.041       .  S
O115       Cr130   1.952   1_455  S
O115        C116   1.254       .  A
C116        O117   1.272       .  A
C116       C1174   1.476       .  S
O117       Cr131   2.035       .  S
O118       Cr131   2.001       .  S
O118        C119   1.262       .  A
C119       C1150   1.497       .  S
O120       Cr129   1.946       .  S
O120        C128   1.258       .  A
O121       Cr129   1.995       .  S
O121        C122   1.262       .  A
C122        O123   1.259       .  A
C122       C1097   1.492       .  S
O123       Cr130   1.989       .  S
O124       Cr130   2.039       .  S
O124        C125   1.271       .  A
C125        O126   1.256       .  A
C125       C1246   1.488       .  S
O126       Cr131   1.969   1_655  S
O127       Cr131   2.033   1_655  S
O127        C128   1.275       .  A
C128       C1073   1.475       .  S
Cr129       O132   1.764       .  S
Cr130       O132   1.771       .  S
Cr131       O132   1.769   1_455  S
O133       Cr151   1.950       .  S
O133        C141   1.260       .  A
O134       Cr151   2.005       .  S
O134        C135   1.263       .  A
C135        O136   1.262       .  A
C135       C1198   1.496       .  S
O136       Cr152   1.997       .  S
O137       Cr152   2.037       .  S
O137        C138   1.271       .  A
C138        O139   1.254       .  A
C138       C1030   1.482       .  S
O139       Cr153   1.958       .  S
O140       Cr153   2.041       .  S
O140        C141   1.277       .  A
C141       C1222   1.482       .  S
O142       Cr151   2.002       .  S
O142        C150   1.262       .  A
O143       Cr151   1.948       .  S
O143        C144   1.257       .  A
C144        O145   1.275       .  A
C144        C982   1.473       .  S
O145       Cr152   2.039       .  S
O146       Cr152   1.958       .  S
O146        C147   1.256       .  A
C147        O148   1.273       .  A
C147       C1054   1.492       .  S
O148       Cr153   2.039       .  S
O149       Cr153   1.992       .  S
O149        C150   1.258       .  A
C150       C1001   1.494       .  S
Cr151       O154   1.767       .  S
Cr152       O154   1.773       .  S
Cr153       O154   1.769       .  S
O155       Cr173   1.946       .  S
O155        C163   1.259       .  A
O156       Cr173   1.996       .  S
O156        C157   1.261       .  A
C157        O158   1.262       .  A
C157       C1121   1.486       .  S
O158       Cr174   1.997       .  S
O159       Cr174   2.039       .  S
O159        C160   1.272       .  A
C160        O161   1.254       .  A
C160       C1025   1.483       .  S
O161       Cr175   1.951   1_565  S
O162       Cr175   2.053   1_565  S
O162        C163   1.280       .  A
C163       C1145   1.502       .  S
O164       Cr173   2.000   1_545  S
O164        C172   1.261       .  A
O165       Cr173   1.949   1_545  S
O165        C166   1.260       .  A
C166        O167   1.275       .  A
C166        C929   1.489       .  S
O167       Cr174   2.034   1_545  S
O168       Cr174   1.964   1_545  S
O168        C169   1.256       .  A
C169        O170   1.274       .  A
C169        C905   1.488       .  S
O170       Cr175   2.044       .  S
O171       Cr175   1.988       .  S
O171        C172   1.257       .  A
C172        C953   1.495       .  S
Cr173       O176   1.765       .  S
Cr174       O176   1.771       .  S
Cr175       O176   1.766   1_545  S
O177       Cr195   1.955       .  S
O177        C185   1.265       .  A
O178       Cr195   1.996   1_556  S
O178       C1871   1.255       .  A
C179        O180   1.254       .  A
C179       O1870   1.255       .  A
C179        C838   1.489       .  S
O180       Cr196   1.994       .  S
O181      Cr1888   2.028   1_554  S
O181        C182   1.271       .  A
C182        O183   1.255       .  A
C182       C1049   1.491       .  S
O183       Cr197   1.957       .  S
O184       Cr197   2.045       .  S
O184        C185   1.281       .  A
C185        C809   1.479       .  S
O186       Cr195   1.997       .  S
O186        C194   1.256       .  A
O187      Cr1887   1.951       .  S
O187        C188   1.264       .  A
C188        O189   1.282       .  A
C188        C857   1.475       .  S
O189       Cr196   2.049       .  S
O190      Cr1888   1.955       .  S
O190        C191   1.255   1_556  A
C191        O192   1.272       .  A
C191        C910   1.502   1_554  S
O192       Cr197   2.036       .  S
O193       Cr197   1.996       .  S
O193        C194   1.256       .  A
C194        C881   1.488       .  S
Cr195      O1879   1.953       .  S
Cr195       O198   1.774       .  S
Cr196      O1873   2.030       .  S
Cr196      O1882   1.957       .  S
Cr196      O1890   1.777       .  S
Cr197       O198   1.777       .  S
O198      Cr1888   1.776   1_554  S
O199       Cr217   1.987       .  S
O199        C207   1.258       .  A
O200       Cr217   1.950       .  S
O200        C201   1.259       .  A
C201        O202   1.278       .  A
C201       C1534   1.494       .  S
O202       Cr218   2.048   1_545  S
O203       Cr218   1.958   1_545  S
O203        C204   1.255       .  A
C204        O205   1.273       .  A
C204        C761   1.495       .  S
O205       Cr219   2.047       .  S
O206       Cr219   2.001       .  S
O206        C207   1.263       .  A
C207       C1505   1.483       .  S
O208       Cr217   1.958   1_565  S
O208        C216   1.262       .  A
O209       Cr217   1.994   1_565  S
O209        C210   1.259       .  A
C210        O211   1.258       .  A
C210        C737   1.486       .  S
O211       Cr218   1.988       .  S
O212       Cr218   2.040       .  S
O212        C213   1.273       .  A
C213        O214   1.257       .  A
C213        C785   1.488       .  S
O214       Cr219   1.967   1_565  S
O215       Cr219   2.039   1_565  S
O215        C216   1.276       .  A
C216        C713   1.484       .  S
Cr217       O220   1.766       .  S
Cr218       O220   1.769   1_565  S
Cr219       O220   1.770       .  S
O221       Cr239   1.998       .  S
O221       C1921   1.259       .  A
O222       Cr239   1.959       .  S
O222        C223   1.264       .  A
C223        O224   1.280       .  A
C223       C1006   1.495       .  S
O224       Cr240   2.046       .  S
O225       Cr240   1.951       .  S
O225        C226   1.252       .  A
C226        O227   1.273       .  A
C226        C641   1.480       .  S
O227      Cr1933   2.041       .  S
O228       Cr241   1.995       .  S
O228        C229   1.259   1_556  A
C229       O1913   1.259   1_554  A
C229        C977   1.492       .  S
O230      Cr1931   1.956       .  S
O230        C238   1.261   1_556  A
O231       Cr239   1.992       .  S
O231        C232   1.259       .  A
C232        O233   1.257       .  A
C232        C689   1.485       .  S
O233       Cr240   1.991       .  S
O234       Cr240   2.042       .  S
O234        C235   1.274       .  A
C235        O236   1.256       .  A
C235        C790   1.496       .  S
O236      Cr1933   1.959       .  S
O237       Cr241   2.050   1_554  S
O237        C238   1.279       .  A
C238        C665   1.480       .  S
Cr239      O1922   1.957       .  S
Cr239       O242   1.767       .  S
Cr240       O242   1.770       .  S
Cr241      O1919   2.043       .  S
Cr241      O1928   1.958   1_556  S
Cr241      O1934   1.769       .  S
O242      Cr1933   1.770       .  S
O243       Cr261   1.996       .  S
O243        C251   1.259       .  A
O244       Cr261   1.947       .  S
O244        C245   1.261       .  A
C245        O246   1.278       .  A
C245       C1366   1.489       .  S
O246       Cr262   2.043       .  S
O247       Cr262   1.961       .  S
O247        C248   1.255       .  A
C248        O249   1.274       .  A
C248        C766   1.491       .  S
O249       Cr263   2.046       .  S
O250       Cr263   1.995       .  S
O250        C251   1.259       .  A
C251       C1337   1.490       .  S
O252       Cr261   1.951       .  S
O252        C260   1.260       .  A
O253       Cr261   1.995       .  S
O253        C254   1.260       .  A
C254        O255   1.257       .  A
C254        C814   1.493       .  S
O255       Cr262   1.992       .  S
O256       Cr262   2.037       .  S
O256        C257   1.271       .  A
C257        O258   1.255       .  A
C257        C646   1.494       .  S
O258       Cr263   1.952       .  S
O259       Cr263   2.047       .  S
O259        C260   1.279       .  A
C260        C833   1.483       .  S
Cr261       O264   1.769       .  S
Cr262       O264   1.774       .  S
Cr263       O264   1.770       .  S
O265       Cr283   1.997       .  S
O265        C273   1.261       .  A
O266       Cr283   1.970       .  S
O266        C267   1.263       .  A
C267        O268   1.275       .  A
C267        C545   1.493       .  S
O268       Cr284   2.038       .  S
O269       Cr284   1.965       .  S
O269        C270   1.257       .  A
C270        O271   1.272       .  A
C270        C617   1.485       .  S
O271       Cr285   2.039       .  S
O272       Cr285   1.997       .  S
O272        C273   1.262       .  A
C273        C574   1.491       .  S
O274       Cr283   1.963       .  S
O274        C282   1.261       .  A
O275       Cr283   1.998       .  S
O275        C276   1.262       .  A
C276        O277   1.261       .  A
C276        C862   1.490       .  S
O277       Cr284   1.994       .  S
O278       Cr284   2.041       .  S
O278        C279   1.272       .  A
C279        O280   1.256       .  A
C279        C598   1.497       .  S
O280       Cr285   1.964       .  S
O281       Cr285   2.035       .  S
O281        C282   1.275       .  A
C282        C886   1.486       .  S
Cr283       O286   1.770       .  S
Cr284       O286   1.771       .  S
Cr285       O286   1.774       .  S
O287       Cr305   1.989       .  S
O287        C295   1.258       .  A
O288       Cr305   1.944       .  S
O288        C289   1.258       .  A
C289        O290   1.279       .  A
C289        C958   1.483       .  S
O290       Cr306   2.051       .  S
O291       Cr306   1.960       .  S
O291        C292   1.255       .  A
C292        O293   1.275       .  A
C292        C593   1.499       .  S
O293       Cr307   2.049       .  S
O294       Cr307   1.998       .  S
O294        C295   1.260       .  A
C295        C934   1.483       .  S
O296       Cr305   1.946       .  S
O296        C304   1.259       .  A
O297       Cr305   1.998       .  S
O297        C298   1.259       .  A
C298        O299   1.258       .  A
C298       C1462   1.490       .  S
O299       Cr306   1.988       .  S
O300       Cr306   2.041       .  S
O300        C301   1.274       .  A
C301        O302   1.255       .  A
C301        C521   1.488       .  S
O302       Cr307   1.956       .  S
O303       Cr307   2.049       .  S
O303        C304   1.279       .  A
C304       C1481   1.478       .  S
Cr305       O308   1.767       .  S
Cr306       O308   1.768       .  S
Cr307       O308   1.770       .  S
O309       Cr327   1.992       .  S
O309       C2009   1.260       .  A
O310       Cr327   1.946       .  S
O310        C311   1.259       .  A
C311        O312   1.278       .  A
C311        C478   1.481       .  S
O312       Cr328   2.042       .  S
O313       Cr328   1.959       .  S
O313        C314   1.255       .  A
C314        O315   1.271       .  A
C314        C622   1.493       .  S
O315      Cr2021   2.034       .  S
O316       Cr329   1.995       .  S
O316        C317   1.260   1_556  A
C317       O2001   1.260   1_554  A
C317        C502   1.496       .  S
O318      Cr2019   1.951       .  S
O318        C326   1.261   1_556  A
O319       Cr327   1.997       .  S
O319        C320   1.258       .  A
C320        O321   1.259       .  A
C320       C1606   1.497       .  S
O321       Cr328   1.993       .  S
O322       Cr328   2.037       .  S
O322        C323   1.272       .  A
C323        O324   1.255       .  A
C323        C526   1.482       .  S
O324      Cr2021   1.960       .  S
O325       Cr329   2.036   1_554  S
O325        C326   1.276       .  A
C326       C1630   1.477       .  S
Cr327      O2010   1.951       .  S
Cr327       O330   1.767       .  S
Cr328       O330   1.770       .  S
Cr329      O2007   2.036       .  S
Cr329      O2016   1.961   1_556  S
Cr329      O2022   1.770       .  S
O330      Cr2021   1.770       .  S
O331       Cr349   1.957       .  S
O331        C339   1.261       .  A
O332       Cr349   1.993       .  S
O332        C333   1.258       .  A
C333        O334   1.259       .  A
C333        C473   1.485       .  S
O334       Cr350   1.996       .  S
O335       Cr350   2.030       .  S
O335        C336   1.272       .  A
C336        O337   1.256       .  A
C336        C449   1.493       .  S
O337       Cr351   1.959       .  S
O338       Cr351   2.040       .  S
O338        C339   1.276       .  A
C339        C497   1.482       .  S
O340       Cr349   1.999       .  S
O340        C348   1.260       .  A
O341       Cr349   1.954       .  S
O341        C342   1.262       .  A
C342        O343   1.277       .  A
C342        C694   1.480       .  S
O343       Cr350   2.034       .  S
O344       Cr350   1.962       .  S
O344        C345   1.255       .  A
C345        O346   1.270       .  A
C345        C425   1.482       .  S
O346       Cr351   2.032       .  S
O347       Cr351   2.002       .  S
O347        C348   1.261       .  A
C348        C670   1.493       .  S
Cr349       O352   1.767       .  S
Cr350       O352   1.773       .  S
Cr351       O352   1.772       .  S
O353       Cr371   1.996       .  S
O353        C361   1.266       .  A
O354       Cr371   1.986       .  S
O354       C2047   1.258       .  A
C355        O356   1.264       .  A
C355       O2046   1.259       .  A
C355        C550   1.498       .  S
O356       Cr372   2.009       .  S
O357      Cr2064   2.016       .  S
O357        C358   1.270       .  A
C358        O359   1.262       .  A
C358        C454   1.488       .  S
O359       Cr373   1.986       .  S
O360       Cr373   1.999       .  S
O360        C361   1.265       .  A
C361        C569   1.498       .  S
O362       Cr371   1.980       .  S
O362        C370   1.258       .  A
O363      Cr2063   1.995       .  S
O363        C364   1.265       .  A
C364        O365   1.267       .  A
C364       C1294   1.498       .  S
O365       Cr372   1.998       .  S
O366      Cr2064   2.001       .  S
O366        C367   1.266       .  A
C367        O368   1.272       .  A
C367        C406   1.488       .  S
O368       Cr373   2.018       .  S
O369       Cr373   2.007       .  S
O369        C370   1.264       .  A
C370       C1270   1.489       .  S
Cr371      O2055   1.997   1_554  S
Cr371       O374   1.769       .  S
Cr372      O2049   2.017       .  S
Cr372      O2058   2.000       .  S
Cr372      O2066   1.764       .  S
Cr373       O374   1.768       .  S
O374      Cr2064   1.764       .  S
O375       Cr393   1.945       .  S
O375        C383   1.260       .  A
O376       Cr393   1.997       .  S
O376        C377   1.262       .  A
C377        O378   1.261       .  A
C377        C718   1.483       .  S
O378       Cr394   1.989       .  S
O379       Cr394   2.029       .  S
O379        C380   1.269       .  A
C380        O381   1.253       .  A
C380        C430   1.483       .  S
O381       Cr395   1.962       .  S
O382       Cr395   2.040       .  S
O382        C383   1.278       .  A
C383        C742   1.493       .  S
O384       Cr393   1.989       .  S
O384        C392   1.258       .  A
O385       Cr393   1.962       .  S
O385        C386   1.261       .  A
C386        O387   1.272       .  A
C386       C1102   1.477       .  S
O387       Cr394   2.028       .  S
O388       Cr394   1.954       .  S
O388        C389   1.256       .  A
C389        O390   1.275       .  A
C389        C401   1.490       .  S
O390       Cr395   2.043       .  S
O391       Cr395   1.989       .  S
O391        C392   1.257       .  A
C392       C1078   1.482       .  S
Cr393       O396   1.765       .  S
Cr394       O396   1.768       .  S
Cr395       O396   1.768       .  S
C397        C398   1.410       .  A
C397        C402   1.401       .  A
C397        C411   1.444       .  S
C398        C403   1.495       .  S
C398        C399   1.408       .  A
C399        C400   1.408       .  A
C399        H418   1.093       .  S
C400        C401   1.413       .  A
C400        C412   1.443       .  S
C401        C402   1.408       .  A
C402        H417   1.093       .  S
C403        C408   1.414       .  A
C403       C2096   1.400       .  A
C404        C405   1.400   1_556  A
C404       C2095   1.400       .  A
C404        H419   1.081       .  S
C405        C406   1.415       .  A
C405        C409   1.443       .  S
C406       C2099   1.407   1_554  A
C407        C408   1.413       .  A
C407       C2098   1.408       .  A
C407        H420   1.081       .  S
C408        C410   1.443       .  S
C409        N413   1.156       .  T
C410        N414   1.157       .  T
C411        N416   1.157       .  T
C412        N415   1.157       .  T
C421        C422   1.414       .  A
C421        C426   1.407       .  A
C421        C435   1.444       .  S
C422        C427   1.493       .  S
C422        C423   1.403       .  A
C423        C424   1.403       .  A
C423        H442   1.084       .  S
C424        C425   1.412       .  A
C424        C436   1.444       .  S
C425        C426   1.405       .  A
C426        H441   1.084       .  S
C427        C428   1.403       .  A
C427        C432   1.415       .  A
C428        C429   1.403       .  A
C428        H443   1.086       .  S
C429        C430   1.415       .  A
C429        C433   1.445       .  S
C430        C431   1.403       .  A
C431        C432   1.404       .  A
C431        H444   1.086       .  S
C432        C434   1.443       .  S
C433        N437   1.157       .  T
C434        N438   1.157       .  T
C435        N440   1.157       .  T
C436        N439   1.157       .  T
C445        C446   1.414       .  A
C445        C450   1.407       .  A
C445        C459   1.444       .  S
C446        C451   1.491       .  S
C446        C447   1.397       .  A
C447        C448   1.398       .  A
C447        H466   1.085       .  S
C448        C449   1.421       .  A
C448        C460   1.443       .  S
C449        C450   1.407       .  A
C450        H465   1.084       .  S
C451        C452   1.408       .  A
C451        C456   1.409       .  A
C452        C453   1.409       .  A
C452        H467   1.085       .  S
C453        C454   1.412       .  A
C453        C457   1.443       .  S
C454        C455   1.408       .  A
C455        C456   1.396       .  A
C455        H468   1.084       .  S
C456        C458   1.446       .  S
C457        N461   1.157       .  T
C458        N462   1.157       .  T
C459        N464   1.157       .  T
C460        N463   1.156       .  T
C469        C470   1.412       .  A
C469        C474   1.406       .  A
C469        C483   1.444       .  S
C470        C475   1.485       .  S
C470        C471   1.399       .  A
C471        C472   1.399       .  A
C471        H490   1.085       .  S
C472        C473   1.416       .  A
C472        C484   1.444       .  S
C473        C474   1.405       .  A
C474        H489   1.084       .  S
C475        C476   1.400       .  A
C475        C480   1.411       .  A
C476        C477   1.397       .  A
C476        H491   1.084       .  S
C477        C478   1.415       .  A
C477        C481   1.446       .  S
C478        C479   1.406       .  A
C479        C480   1.406       .  A
C479        H492   1.082       .  S
C480        C482   1.442       .  S
C481        N485   1.157       .  T
C482        N486   1.157       .  T
C483        N488   1.157       .  T
C484        N487   1.157       .  T
C493        C494   1.413       .  A
C493        C498   1.407       .  A
C493        C507   1.443       .  S
C494        C499   1.487       .  S
C494        C495   1.399       .  A
C495        C496   1.397       .  A
C495        H514   1.084       .  S
C496        C497   1.416       .  A
C496        C508   1.445       .  S
C497        C498   1.405       .  A
C498        H513   1.084       .  S
C499        C500   1.404       .  A
C499        C504   1.408       .  A
C500        C501   1.406       .  A
C500        H515   1.086       .  S
C501        C502   1.418       .  A
C501       C2197   1.443       .  S
C502        C503   1.411       .  A
C503        C504   1.398       .  A
C503        H516   1.086       .  S
C504        C506   1.445       .  S
C505       C2193   1.443       .  S
C505        N509   1.157       .  T
C506        N510   1.157       .  T
C507       N2204   1.157   1_554  T
C508        N511   1.157       .  T
N512       C2199   1.157       .  T
C517        C518   1.409       .  A
C517        C522   1.403       .  A
C517        C531   1.443       .  S
C518        C523   1.494       .  S
C518        C519   1.407       .  A
C519        C520   1.408       .  A
C519        H538   1.085       .  S
C520        C521   1.412       .  A
C520        C532   1.443       .  S
C521        C522   1.408       .  A
C522        H537   1.086       .  S
C523        C524   1.404       .  A
C523        C528   1.413       .  A
C524        C525   1.406       .  A
C524        H539   1.085       .  S
C525       C2218   1.414   1_554  A
C525        C529   1.444       .  S
C526        C527   1.403       .  A
C526       C2217   1.414       .  A
C527       C2220   1.405       .  A
C527        H540   1.084       .  S
C528       C2219   1.406   1_554  A
C528       C2222   1.443       .  S
C529        N533   1.157       .  T
C530       C2220   1.443       .  S
C530        N534   1.157       .  T
C531        N536   1.157   1_554  T
C532        N535   1.157       .  T
C541        C542   1.411       .  A
C541        C546   1.402       .  A
C541        C555   1.444       .  S
C542        C547   1.493       .  S
C542        C543   1.405       .  A
C543        C544   1.408       .  A
C543        H562   1.084       .  S
C544        C545   1.416       .  A
C544        C556   1.443       .  S
C545        C546   1.407       .  A
C546        H561   1.084       .  S
C547        C548   1.401       .  A
C547        C552   1.411       .  A
C548        C549   1.403       .  A
C548        H563   1.086       .  S
C549        C550   1.418       .  A
C549        C553   1.444       .  S
C550        C551   1.410       .  A
C551        C552   1.407       .  A
C551        H564   1.085       .  S
C552        C554   1.444       .  S
C553        N557   1.157       .  T
C554        N558   1.157       .  T
C555        N560   1.157       .  T
C556        N559   1.157       .  T
C565        C566   1.409       .  A
C565        C570   1.398       .  A
C565        C579   1.445       .  S
C566        C571   1.492       .  S
C566        C567   1.404       .  A
C567        C568   1.409       .  A
C567        H586   1.085       .  S
C568        C569   1.420       .  A
C568        C580   1.444       .  S
C569        C570   1.410       .  A
C570        H585   1.085       .  S
C571        C572   1.401       .  A
C571        C576   1.412       .  A
C572        C573   1.400       .  A
C572        H587   1.086       .  S
C573        C574   1.418       .  A
C573        C577   1.445       .  S
C574        C575   1.407       .  A
C575        C576   1.408       .  A
C575        H588   1.085       .  S
C576        C578   1.443       .  S
C577        N581   1.157       .  T
C578        N582   1.157       .  T
C579        N584   1.157       .  T
C580        N583   1.157       .  T
C589        C590   1.414       .  A
C589        C594   1.410       .  A
C589        C603   1.443       .  S
C590        C595   1.498       .  S
C590        C591   1.399       .  A
C591        C592   1.404       .  A
C591        H610   1.084       .  S
C592        C593   1.421       .  A
C592        C604   1.442       .  S
C593        C594   1.407       .  A
C594        H609   1.083       .  S
C595        C596   1.408       .  A
C595        C600   1.408       .  A
C596        C597   1.411       .  A
C596        H611   1.084       .  S
C597        C598   1.416       .  A
C597        C601   1.444       .  S
C598        C599   1.409       .  A
C599        C600   1.402       .  A
C599        H612   1.084       .  S
C600        C602   1.443       .  S
C601        N605   1.157       .  T
C602        N606   1.157       .  T
C603        N608   1.157       .  T
C604        N607   1.156       .  T
C613        C614   1.412       .  A
C613        C618   1.406       .  A
C613        C627   1.443       .  S
C614        C619   1.492       .  S
C614        C615   1.402       .  A
C615        C616   1.405       .  A
C615        H634   1.085       .  S
C616        C617   1.414       .  A
C616        C628   1.444       .  S
C617        C618   1.404       .  A
C618        H633   1.084       .  S
C619        C620   1.406       .  A
C619        C624   1.407       .  A
C620        C621   1.409       .  A
C620        H635   1.083       .  S
C621        C622   1.414       .  A
C621        C625   1.443       .  S
C622        C623   1.410       .  A
C623        C624   1.402       .  A
C623        H636   1.083       .  S
C624        C626   1.444       .  S
C625        N629   1.157       .  T
C626        N630   1.157       .  T
C627        N632   1.157       .  T
C628        N631   1.157       .  T
C637        C638   1.412       .  A
C637        C642   1.405       .  A
C637        C651   1.443   1_565  S
C638        C643   1.491   1_565  S
C638        C639   1.403       .  A
C639        C640   1.406       .  A
C639        H658   1.085       .  S
C640        C641   1.415       .  A
C640        C652   1.445       .  S
C641        C642   1.403       .  A
C642        H657   1.085       .  S
C643        C644   1.408       .  A
C643        C648   1.405       .  A
C644        C645   1.411       .  A
C644        H659   1.085   1_545  S
C645        C646   1.415       .  A
C645        C649   1.443       .  S
C646        C647   1.410       .  A
C647        C648   1.398       .  A
C647        H660   1.086       .  S
C648        C650   1.444       .  S
C649        N653   1.157       .  T
C650        N654   1.157       .  T
C651        N656   1.157       .  T
C652        N655   1.157       .  T
C661        C662   1.414       .  A
C661        C666   1.408       .  A
C661        C675   1.443       .  S
C662        C667   1.492       .  S
C662        C663   1.402       .  A
C663        C664   1.401       .  A
C663        H682   1.085       .  S
C664        C665   1.413       .  A
C664        C676   1.445       .  S
C665        C666   1.403       .  A
C666        H681   1.085       .  S
C667        C668   1.401       .  A
C667        C672   1.411       .  A
C668        C669   1.402       .  A
C668        H683   1.085       .  S
C669        C670   1.419       .  A
C669        C673   1.445       .  S
C670        C671   1.407       .  A
C671        C672   1.408       .  A
C671        H684   1.084       .  S
C672        C674   1.443       .  S
C673        N677   1.158       .  T
C674        N678   1.157       .  T
C675        N680   1.157       .  T
C676        N679   1.157   1_554  T
C685        C686   1.410       .  A
C685        C690   1.396       .  A
C685        C699   1.445       .  S
C686        C691   1.488       .  S
C686        C687   1.406       .  A
C687        C688   1.405       .  A
C687        H706   1.085       .  S
C688        C689   1.415       .  A
C688        C700   1.443       .  S
C689        C690   1.406       .  A
C690        H705   1.085       .  S
C691        C692   1.402       .  A
C691        C696   1.412       .  A
C692        C693   1.395       .  A
C692        H707   1.085       .  S
C693        C694   1.413       .  A
C693        C697   1.445       .  S
C694        C695   1.406       .  A
C695        C696   1.406       .  A
C695        H708   1.084       .  S
C696        C698   1.443       .  S
C697        N701   1.157       .  T
C698        N702   1.157       .  T
C699        N704   1.157       .  T
C700        N703   1.157       .  T
C709        C710   1.410       .  A
C709        C714   1.398   1_556  A
C709        C723   1.445   1_556  S
C710       C2407   1.486       .  S
C710        C711   1.404       .  A
C711        C712   1.406       .  A
C711       H2422   1.084       .  S
C712        C713   1.414   1_556  A
C712        C724   1.443       .  S
C713        C714   1.406       .  A
C714        H729   1.085       .  S
C715       C2402   1.482       .  S
C715        C716   1.403       .  A
C715        C720   1.407       .  A
C716        C717   1.402       .  A
C716        H731   1.086       .  S
C717        C718   1.413       .  A
C717        C721   1.443       .  S
C718        C719   1.408       .  A
C719        C720   1.400       .  A
C719        H732   1.086       .  S
C720       C2414   1.444       .  S
C721        N725   1.157       .  T
C722       C2412   1.444       .  S
C722        N726   1.157       .  T
C723        N728   1.157       .  T
C724        N727   1.157       .  T
H730       C2403   1.084       .  S
C733        C734   1.411       .  A
C733        C738   1.402       .  A
C733        C747   1.444       .  S
C734        C739   1.483       .  S
C734        C735   1.399       .  A
C735        C736   1.399       .  A
C735        H754   1.085       .  S
C736        C737   1.418       .  A
C736        C748   1.445       .  S
C737        C738   1.406       .  A
C738        H753   1.084       .  S
C739        C740   1.405       .  A
C739        C744   1.406       .  A
C740        C741   1.408       .  A
C740        H755   1.083       .  S
C741        C742   1.417       .  A
C741        C745   1.443       .  S
C742        C743   1.411       .  A
C743        C744   1.393       .  A
C743        H756   1.084       .  S
C744        C746   1.446       .  S
C745        N749   1.157       .  T
C746        N750   1.157       .  T
C747        N752   1.157       .  T
C748        N751   1.157       .  T
C757        C758   1.408       .  A
C757        C762   1.403       .  A
C757        C771   1.443       .  S
C758        C763   1.497       .  S
C758        C759   1.408       .  A
C759        C760   1.412       .  A
C759        H778   1.085       .  S
C760        C761   1.415       .  A
C760        C772   1.443       .  S
C761        C762   1.409       .  A
C762        H777   1.086       .  S
C763        C764   1.402       .  A
C763        C768   1.414       .  A
C764        C765   1.406       .  A
C764        H779   1.085       .  S
C765        C766   1.416       .  A
C765        C769   1.443       .  S
C766        C767   1.405       .  A
C767        C768   1.410       .  A
C767        H780   1.085       .  S
C768        C770   1.443       .  S
C769        N773   1.157       .  T
C770        N774   1.157       .  T
C771        N776   1.157       .  T
C772        N775   1.157       .  T
C781        C782   1.413       .  A
C781        C786   1.406       .  A
C781        C795   1.443       .  S
C782        C787   1.494       .  S
C782        C783   1.402       .  A
C783        C784   1.406       .  A
C783        H802   1.084       .  S
C784        C785   1.416       .  A
C784        C796   1.444       .  S
C785        C786   1.404       .  A
C786        H801   1.083       .  S
C787        C792   1.407       .  A
C787       C2480   1.407   1_554  A
C788        C789   1.411       .  A
C788       C2479   1.407       .  A
C788        H803   1.084       .  S
C789        C790   1.414       .  A
C789        C793   1.443       .  S
C790       C2483   1.410       .  A
C791        C792   1.402       .  A
C791       C2482   1.410   1_554  A
C791        H804   1.085       .  S
C792        C794   1.444       .  S
C793        N797   1.157       .  T
C794        N798   1.157       .  T
C795       N2492   1.157       .  T
C796        N799   1.157       .  T
N800       C2487   1.157       .  T
C805        C806   1.414       .  A
C805        C810   1.407       .  A
C805        C819   1.443       .  S
C806        C811   1.487       .  S
C806        C807   1.399       .  A
C807        C808   1.396       .  A
C807        H826   1.084       .  S
C808        C809   1.414       .  A
C808        C820   1.445       .  S
C809        C810   1.404       .  A
C810        H825   1.084       .  S
C811        C812   1.404       .  A
C811        C816   1.409       .  A
C812        C813   1.405       .  A
C812        H827   1.086       .  S
C813        C814   1.418       .  A
C813        C817   1.444       .  S
C814        C815   1.409       .  A
C815        C816   1.397       .  A
C815        H828   1.086       .  S
C816        C818   1.445       .  S
C817        N821   1.158       .  T
C818        N822   1.157       .  T
C819        N824   1.157       .  T
C820        N823   1.157       .  T
C829        C830   1.414       .  A
C829        C834   1.408       .  A
C829        C843   1.443       .  S
C830        C835   1.494       .  S
C830        C831   1.403       .  A
C831        C832   1.399       .  A
C831        H850   1.086       .  S
C832        C833   1.414       .  A
C832        C844   1.445       .  S
C833        C834   1.405       .  A
C834        H849   1.085       .  S
C835        C836   1.403       .  A
C835        C840   1.414       .  A
C836        C837   1.401       .  A
C836        H851   1.085       .  S
C837        C838   1.416       .  A
C837       C2533   1.445       .  S
C838        C839   1.406       .  A
C839        C840   1.407       .  A
C839        H852   1.084       .  S
C840        C842   1.444       .  S
C841       C2529   1.444   1_554  S
C841        N845   1.157       .  T
C842        N846   1.157       .  T
C843        N848   1.157       .  T
C844        N847   1.157       .  T
C853        C854   1.415       .  A
C853        C858   1.406       .  A
C853        C867   1.443       .  S
C854        C859   1.488       .  S
C854        C855   1.400       .  A
C855        C856   1.397       .  A
C855        H874   1.085       .  S
C856        C857   1.412       .  A
C856        C868   1.445       .  S
C857        C858   1.403       .  A
C858        H873   1.085       .  S
C859        C860   1.405       .  A
C859        C864   1.410       .  A
C860        C861   1.406       .  A
C860        H875   1.087       .  S
C861        C862   1.416       .  A
C861        C865   1.444       .  S
C862        C863   1.408       .  A
C863        C864   1.398       .  A
C863        H876   1.087       .  S
C864        C866   1.445       .  S
C865        N869   1.157       .  T
C866        N870   1.157       .  T
C867        N872   1.157       .  T
C868       N2563   1.157       .  T
N871       C2560   1.157   1_554  T
C877        C878   1.414       .  A
C877        C882   1.406       .  A
C877        C891   1.444       .  S
C878        C883   1.495       .  S
C878        C879   1.404       .  A
C879        C880   1.404       .  A
C879        H898   1.084       .  S
C880        C881   1.415       .  A
C880        C892   1.445       .  S
C881        C882   1.405       .  A
C882        H897   1.084       .  S
C883        C884   1.403       .  A
C883        C888   1.414       .  A
C884        C885   1.402       .  A
C884        H899   1.085       .  S
C885        C886   1.414       .  A
C885        C889   1.445       .  S
C886        C887   1.405       .  A
C887        C888   1.407       .  A
C887        H900   1.085       .  S
C888        C890   1.443       .  S
C889        N893   1.157       .  T
C890        N894   1.157       .  T
C891        N896   1.157       .  T
C892        N895   1.157       .  T
C901        C902   1.416       .  A
C901        C906   1.407       .  A
C901        C915   1.444       .  S
C902        C907   1.499       .  S
C902        C903   1.404       .  A
C903        C904   1.407       .  A
C903        H922   1.084       .  S
C904        C905   1.416       .  A
C904        C916   1.444       .  S
C905        C906   1.403       .  A
C906        H921   1.084       .  S
C907        C908   1.399       .  A
C907        C912   1.414       .  A
C908        C909   1.401       .  A
C908        H923   1.084       .  S
C909       C2602   1.423       .  A
C909        C913   1.445       .  S
C910        C911   1.409   1_556  A
C910       C2601   1.424       .  A
C911       C2604   1.413       .  A
C911        H924   1.083       .  S
C912       C2603   1.412       .  A
C912        C914   1.443       .  S
C913        N917   1.157       .  T
C914        N918   1.157       .  T
C915       N2612   1.157       .  T
C916        N919   1.157       .  T
N920       C2607   1.157       .  T
C925        C926   1.406       .  A
C925        C930   1.393       .  A
C925        C939   1.445       .  S
C926       C2623   1.480       .  S
C926       C2619   1.403       .  A
C927       C2618   1.402       .  A
C927       C2620   1.407       .  A
C927        H946   1.085       .  S
C928        C929   1.418       .  A
C928       C2619   1.407       .  A
C928        C940   1.443       .  S
C929        C930   1.408       .  A
C930        H945   1.085       .  S
C931       C2618   1.480       .  S
C931        C932   1.398       .  A
C931        C936   1.410       .  A
C932        C933   1.397       .  A
C932        H947   1.084       .  S
C933        C934   1.418       .  A
C933        C937   1.445       .  S
C934        C935   1.405       .  A
C935        C936   1.404       .  A
C935        H948   1.084       .  S
C936       C2630   1.443       .  S
C937        N941   1.157       .  T
C938       C2628   1.443       .  S
C938        N942   1.157       .  T
C939        N944   1.157       .  T
C940        N943   1.157       .  T
C949        C950   1.408       .  A
C949        C954   1.400       .  A
C949        C963   1.444       .  S
C950        C955   1.489       .  S
C950        C951   1.404       .  A
C951        C952   1.404       .  A
C951        H970   1.084       .  S
C952        C953   1.419       .  A
C952        C964   1.444       .  S
C953        C954   1.410       .  A
C954        H969   1.084       .  S
C955        C956   1.408       .  A
C955        C960   1.409       .  A
C956        C957   1.409       .  A
C956        H971   1.085       .  S
C957        C958   1.412       .  A
C957        C961   1.443       .  S
C958        C959   1.406       .  A
C959        C960   1.394       .  A
C959        H972   1.086       .  S
C960        C962   1.445       .  S
C961        N965   1.157       .  T
C962        N966   1.157       .  T
C963        N968   1.157       .  T
C964        N967   1.158       .  T
C973        C974   1.410       .  A
C973        C978   1.399       .  A
C973        C987   1.445       .  S
C974        C979   1.487       .  S
C974        C975   1.404       .  A
C975        C976   1.404       .  A
C975        H994   1.086       .  S
C976        C977   1.416       .  A
C976       C2680   1.443       .  S
C977        C978   1.409       .  A
C978        H993   1.086       .  S
C979        C980   1.400       .  A
C979        C984   1.415       .  A
C980        C981   1.396       .  A
C980        H995   1.084       .  S
C981        C982   1.413       .  A
C981        C985   1.446       .  S
C982        C983   1.402       .  A
C983        C984   1.406       .  A
C983        H996   1.084       .  S
C984        C986   1.443       .  S
C985        N989   1.157       .  T
C986        N990   1.157       .  T
C987        N992   1.157       .  T
C988       C2668   1.443       .  S
C988        N991   1.157       .  T
C997        C998   1.408       .  A
C997       C1002   1.401       .  A
C997       C1011   1.444       .  S
C998       C1003   1.490       .  S
C998        C999   1.404       .  A
C999       C1000   1.407       .  A
C999       H1018   1.084       .  S
C1000      C1001   1.417       .  A
C1000      C1012   1.443       .  S
C1001      C1002   1.408       .  A
C1002      H1017   1.084       .  S
C1003      C1004   1.405       .  A
C1003      C1008   1.408       .  A
C1004      C1005   1.411       .  A
C1004      H1019   1.084       .  S
C1005      C1006   1.418       .  A
C1005      C1009   1.443       .  S
C1006      C1007   1.408       .  A
C1007      C1008   1.397       .  A
C1007      H1020   1.085       .  S
C1008      C1010   1.445       .  S
C1009      N1013   1.157       .  T
C1010      N1014   1.157       .  T
C1011      N1016   1.157       .  T
C1012      N1015   1.157       .  T
C1021      C1022   1.415       .  A
C1021      C1026   1.408       .  A
C1021      C1035   1.443       .  S
C1022      C1027   1.492       .  S
C1022      C1023   1.400       .  A
C1023      C1024   1.400       .  A
C1023      H1042   1.084       .  S
C1024      C1025   1.415       .  A
C1024      C1036   1.445       .  S
C1025      C1026   1.405       .  A
C1026      H1041   1.084       .  S
C1027      C1028   1.403       .  A
C1027      C1032   1.414       .  A
C1028      C1029   1.402       .  A
C1028      H1043   1.085       .  S
C1029      C1030   1.412       .  A
C1029      C1033   1.444       .  S
C1030      C1031   1.405       .  A
C1031      C1032   1.407       .  A
C1031      H1044   1.085       .  S
C1032      C1034   1.444       .  S
C1033      N1037   1.157       .  T
C1034      N1038   1.157       .  T
C1035      N1040   1.157       .  T
C1036      N1039   1.157       .  T
C1045      C1046   1.409       .  A
C1045      C1050   1.403       .  A
C1045      C1059   1.444       .  S
C1046      C1051   1.497   1_545  S
C1046      C1047   1.409       .  A
C1047      C1048   1.408       .  A
C1047      H1066   1.083   1_545  S
C1048      C1049   1.411       .  A
C1048      C1060   1.443       .  S
C1049      C1050   1.410       .  A
C1050      H1065   1.084       .  S
C1051      C1052   1.409       .  A
C1051      C1056   1.408       .  A
C1052      C1053   1.409       .  A
C1052      H1067   1.085   1_565  S
C1053      C1054   1.414       .  A
C1053      C1057   1.444       .  S
C1054      C1055   1.409       .  A
C1055      C1056   1.400       .  A
C1055      H1068   1.085       .  S
C1056      C1058   1.444       .  S
C1057      N1061   1.157       .  T
C1058      N1062   1.157       .  T
C1059      N1064   1.157       .  T
C1060      N1063   1.157   1_554  T
C1069      C1070   1.410       .  A
C1069      C1074   1.405       .  A
C1069      C1083   1.442       .  S
C1070      C1075   1.482       .  S
C1070      C1071   1.401       .  A
C1071      C1072   1.394       .  A
C1071      H1090   1.085       .  S
C1072      C1073   1.413       .  A
C1072      C1084   1.446       .  S
C1073      C1074   1.405       .  A
C1074      H1089   1.084       .  S
C1075      C1076   1.399       .  A
C1075      C1080   1.412       .  A
C1076      C1077   1.396       .  A
C1076      H1091   1.085       .  S
C1077      C1078   1.416       .  A
C1077      C1081   1.445       .  S
C1078      C1079   1.406       .  A
C1079      C1080   1.404       .  A
C1079      H1092   1.085       .  S
C1080      C1082   1.444       .  S
C1081      N1085   1.157       .  T
C1082      N1086   1.157       .  T
C1083      N1088   1.157       .  T
C1084      N1087   1.157       .  T
C1093      C1094   1.409       .  A
C1093      C1098   1.395       .  A
C1093      C2799   1.445       .  S
C1094      C2791   1.486       .  S
C1094      C1095   1.405       .  A
C1095      C1096   1.405       .  A
C1095      H1114   1.086       .  S
C1096      C1097   1.418       .  A
C1096      C1108   1.444       .  S
C1097      C1098   1.408       .  A
C1098      H1113   1.085       .  S
C1099      C2786   1.485       .  S
C1099      C1100   1.400       .  A
C1099      C2796   1.413       .  A
C1100      C1101   1.396       .  A
C1100      H1115   1.084       .  S
C1101      C1102   1.414       .  A
C1101      C1105   1.445       .  S
C1102      C1103   1.404       .  A
C1103      C2796   1.404       .  A
C1103      H1116   1.084       .  S
C1104      C2791   1.413       .  A
C1104      C2795   1.404       .  A
C1104      C1106   1.443       .  S
C1105      N1109   1.157       .  T
C1106      N1110   1.157       .  T
C1107      C2785   1.445       .  S
C1107      N1112   1.157       .  T
C1108      N1111   1.158       .  T
C1117      C1118   1.408       .  A
C1117      C1122   1.400       .  A
C1117      C1131   1.444       .  S
C1118      C2815   1.486       .  S
C1118      C1119   1.404       .  A
C1119      C1120   1.405       .  A
C1119      H1138   1.086       .  S
C1120      C1121   1.413       .  A
C1120      C1132   1.443       .  S
C1121      C1122   1.408       .  A
C1122      H1137   1.085       .  S
C1123      C2810   1.485       .  S
C1123      C1128   1.408   1_556  A
C1123      C2816   1.405       .  A
C1124      C2815   1.405       .  A
C1124      C2817   1.409       .  A
C1124      H1139   1.085       .  S
C1125      C1126   1.415   1_556  A
C1125      C2816   1.409       .  A
C1125      C2821   1.443       .  S
C1126      C1127   1.406       .  A
C1127      C1128   1.395       .  A
C1127      H1140   1.085       .  S
C1128      C1130   1.445       .  S
C1129      C2817   1.443       .  S
C1129      N1133   1.157       .  T
C1130      N1134   1.157       .  T
C1131      N1136   1.157       .  T
C1132      N1135   1.157       .  T
C1141      C1142   1.406       .  A
C1141      C1146   1.395       .  A
C1141      C1155   1.445       .  S
C1142      C1147   1.493       .  S
C1142      C1143   1.408       .  A
C1143      C1144   1.413       .  A
C1143      H1162   1.084       .  S
C1144      C1145   1.418       .  A
C1144      C1156   1.442       .  S
C1145      C1146   1.412       .  A
C1146      H1161   1.084       .  S
C1147      C1148   1.400       .  A
C1147      C1152   1.412       .  A
C1148      C1149   1.404       .  A
C1148      H1163   1.084       .  S
C1149      C1150   1.421       .  A
C1149      C1153   1.445       .  S
C1150      C1151   1.407       .  A
C1151      C1152   1.407       .  A
C1151      H1164   1.083       .  S
C1152      C1154   1.444       .  S
C1153      N1157   1.157       .  T
C1154      N1158   1.157       .  T
C1155      N1160   1.157       .  T
C1156      N1159   1.157       .  T
C1165      C1166   1.405       .  A
C1165      C1170   1.396       .  A
C1165      C1179   1.445       .  S
C1166      C1171   1.483       .  S
C1166      C2859   1.405   1_554  A
C1167      C1168   1.408       .  A
C1167      C2858   1.405       .  A
C1167      H1186   1.085       .  S
C1168      C1169   1.414       .  A
C1168      C1180   1.443       .  S
C1169      C2862   1.410       .  A
C1170      C2861   1.410   1_554  A
C1170      H1185   1.085       .  S
C1171      C1172   1.400       .  A
C1171      C1176   1.412       .  A
C1172      C1173   1.401       .  A
C1172      H1187   1.084       .  S
C1173      C1174   1.414       .  A
C1173      C1177   1.444       .  S
C1174      C1175   1.402       .  A
C1175      C1176   1.403       .  A
C1175      H1188   1.084       .  S
C1176      C1178   1.444       .  S
C1177      N1181   1.157       .  T
C1178      N2874   1.157       .  T
C1179      N1184   1.157       .  T
C1180      N1183   1.157       .  T
N1182      C2870   1.157       .  T
C1189      C1190   1.414       .  A
C1189      C1194   1.410       .  A
C1189      C1203   1.443       .  S
C1190      C1195   1.493       .  S
C1190      C1191   1.401       .  A
C1191      C1192   1.395       .  A
C1191      H1210   1.085       .  S
C1192      C1193   1.416       .  A
C1192      C1204   1.446       .  S
C1193      C1194   1.408       .  A
C1194      H1209   1.085       .  S
C1195      C1196   1.401       .  A
C1195      C1200   1.413       .  A
C1196      C1197   1.399       .  A
C1196      H1211   1.085       .  S
C1197      C1198   1.419       .  A
C1197      C1201   1.443       .  S
C1198      C1199   1.409       .  A
C1199      C1200   1.408       .  A
C1199      H1212   1.084       .  S
C1200      C1202   1.443       .  S
C1201      N1205   1.157       .  T
C1202      N1206   1.157       .  T
C1203      N1208   1.157       .  T
C1204      N1207   1.157       .  T
C1213      C1214   1.409       .  A
C1213      C1218   1.399       .  A
C1213      C1227   1.444       .  S
C1214      C1219   1.491       .  S
C1214      C1215   1.406       .  A
C1215      C1216   1.406       .  A
C1215      H1234   1.083       .  S
C1216      C1217   1.416       .  A
C1216      C1228   1.444       .  S
C1217      C1218   1.407       .  A
C1218      H1233   1.083       .  S
C1219      C1220   1.402       .  A
C1219      C1224   1.412       .  A
C1220      C1221   1.396       .  A
C1220      H1235   1.084       .  S
C1221      C1222   1.413       .  A
C1221      C1225   1.445       .  S
C1222      C1223   1.405       .  A
C1223      C1224   1.408       .  A
C1223      H1236   1.083       .  S
C1224      C1226   1.442       .  S
C1225      N1229   1.157       .  T
C1226      N1230   1.157       .  T
C1227      N1232   1.157       .  T
C1228      N1231   1.157       .  T
C1237      C1238   1.408       .  A
C1237      C1242   1.403       .  A
C1237      C1251   1.443       .  S
C1238      C1243   1.496       .  S
C1238      C1239   1.407       .  A
C1239      C1240   1.411       .  A
C1239      H1258   1.084       .  S
C1240      C1241   1.416       .  A
C1240      C1252   1.443       .  S
C1241      C1242   1.411       .  A
C1242      H1257   1.084       .  S
C1243      C1244   1.403       .  A
C1243      C1248   1.414       .  A
C1244      C1245   1.406       .  A
C1244      H1259   1.084       .  S
C1245      C1246   1.414       .  A
C1245      C1249   1.444       .  S
C1246      C1247   1.405       .  A
C1247      C1248   1.409       .  A
C1247      H1260   1.085       .  S
C1248      C1250   1.443       .  S
C1249      N1253   1.157       .  T
C1250      N1254   1.157       .  T
C1251      N1256   1.157       .  T
C1252      N1255   1.157       .  T
C1261      C1262   1.408       .  A
C1261      C1266   1.398       .  A
C1261      C1275   1.445       .  S
C1262      C1267   1.485       .  S
C1262      C1263   1.402       .  A
C1263      C1264   1.406       .  A
C1263      H1282   1.085       .  S
C1264      C1265   1.417       .  A
C1264      C1276   1.443       .  S
C1265      C1266   1.408       .  A
C1266      H1281   1.085       .  S
C1267      C1268   1.402       .  A
C1267      C1272   1.408       .  A
C1268      C1269   1.402       .  A
C1268      H1283   1.084       .  S
C1269      C1270   1.416       .  A
C1269      C1273   1.444       .  S
C1270      C1271   1.408       .  A
C1271      C1272   1.402       .  A
C1271      H1284   1.084       .  S
C1272      C1274   1.443       .  S
C1273      N1277   1.157       .  T
C1274      N1278   1.157       .  T
C1275      N1280   1.157       .  T
C1276      N1279   1.157       .  T
C1285      C1286   1.413       .  A
C1285      C1290   1.401       .  A
C1285      C1299   1.445       .  S
C1286      C1291   1.498       .  S
C1286      C1287   1.407       .  A
C1287      C1288   1.407       .  A
C1287      H1306   1.087       .  S
C1288      C1289   1.416       .  A
C1288      C1300   1.443       .  S
C1289      C1290   1.405       .  A
C1290      H1305   1.087       .  S
C1291      C1292   1.402       .  A
C1291      C1296   1.413       .  A
C1292      C1293   1.399       .  A
C1292      H1307   1.087       .  S
C1293      C1294   1.422       .  A
C1293      C2989   1.445       .  S
C1294      C1295   1.410       .  A
C1295      C1296   1.407       .  A
C1295      H1308   1.086       .  S
C1296      C1298   1.443       .  S
C1297      C2985   1.445       .  S
C1297      N1301   1.158       .  T
C1298      N1302   1.157       .  T
C1299      N1304   1.157       .  T
C1300      N1303   1.157       .  T
C1309      C1310   1.407       .  A
C1309      C1314   1.399       .  A
C1309      C1323   1.444       .  S
C1310      C1315   1.493   1_655  S
C1310      C1311   1.407       .  A
C1311      C1312   1.411       .  A
C1311      H1330   1.085   1_655  S
C1312      C1313   1.416       .  A
C1312      C1324   1.443       .  S
C1313      C1314   1.411       .  A
C1314      H1329   1.085       .  S
C1315      C1316   1.401       .  A
C1315      C1320   1.414       .  A
C1316      C1317   1.404       .  A
C1316      H1331   1.084       .  S
C1317      C1318   1.416       .  A
C1317      C1321   1.444       .  S
C1318      C1319   1.404       .  A
C1319      C1320   1.406       .  A
C1319      H1332   1.085       .  S
C1320      C1322   1.444   1_455  S
C1321      N3017   1.157       .  T
C1322      N1326   1.157       .  T
C1323      N1328   1.157       .  T
C1324      N1327   1.157       .  T
N1325      C3013   1.157       .  T
C1333      C1334   1.410       .  A
C1333      C1338   1.401       .  A
C1333      C1347   1.444       .  S
C1334      C1339   1.491       .  S
C1334      C1335   1.405       .  A
C1335      C1336   1.406       .  A
C1335      H1354   1.085       .  S
C1336      C1337   1.415       .  A
C1336      C1348   1.443       .  S
C1337      C1338   1.408       .  A
C1338      H1353   1.085       .  S
C1339      C1340   1.401       .  A
C1339      C1344   1.412       .  A
C1340      C1341   1.398       .  A
C1340      H1355   1.085       .  S
C1341      C1342   1.416       .  A
C1341      C1345   1.445       .  S
C1342      C1343   1.405       .  A
C1343      C1344   1.407       .  A
C1343      H1356   1.084       .  S
C1344      C1346   1.443       .  S
C1345      N3041   1.157       .  T
C1346      N1350   1.157       .  T
C1347      N1352   1.157       .  T
C1348      N1351   1.157       .  T
N1349      C3037   1.157       .  T
C1357      C1358   1.407       .  A
C1357      C1362   1.400       .  A
C1357      C1371   1.444       .  S
C1358      C1363   1.481       .  S
C1358      C1359   1.403       .  A
C1359      C1360   1.402       .  A
C1359      H1378   1.086       .  S
C1360      C1361   1.412       .  A
C1360      C1372   1.443       .  S
C1361      C1362   1.407       .  A
C1362      H1377   1.086       .  S
C1363      C1364   1.404       .  A
C1363      C1368   1.406       .  A
C1364      C1365   1.409       .  A
C1364      H1379   1.084       .  S
C1365      C1366   1.417       .  A
C1365      C1369   1.443       .  S
C1366      C1367   1.408       .  A
C1367      C1368   1.392       .  A
C1367      H1380   1.085       .  S
C1368      C1370   1.446       .  S
C1369      N1373   1.157       .  T
C1370      N1374   1.157       .  T
C1371      N1376   1.157       .  T
C1372      N1375   1.157       .  T
C1381      C1382   1.409       .  A
C1381      C1386   1.404       .  A
C1381      C1395   1.444       .  S
C1382      C1387   1.491       .  S
C1382      C1383   1.403       .  A
C1383      C1384   1.405       .  A
C1383      H1402   1.085       .  S
C1384      C1385   1.417       .  A
C1384      C1396   1.443       .  S
C1385      C1386   1.408       .  A
C1386      H1401   1.085       .  S
C1387      C1388   1.401       .  A
C1387      C1392   1.411       .  A
C1388      C1389   1.400       .  A
C1388      H1403   1.085       .  S
C1389      C1390   1.419       .  A
C1389      C1393   1.445       .  S
C1390      C1391   1.407       .  A
C1391      C1392   1.408       .  A
C1391      H1404   1.085       .  S
C1392      C1394   1.442       .  S
C1393      N1397   1.157       .  T
C1394      N1398   1.157       .  T
C1395      N1400   1.157       .  T
C1396      N1399   1.157       .  T
C1405      C1406   1.417       .  A
C1405      C1410   1.407       .  A
C1405      C1419   1.444       .  S
C1406      C1411   1.492       .  S
C1406      C1407   1.401       .  A
C1407      C1408   1.397       .  A
C1407      H1426   1.084       .  S
C1408      C1409   1.412       .  A
C1408      C1420   1.445       .  S
C1409      C1410   1.402       .  A
C1410      H1425   1.084       .  S
C1411      C1412   1.399       .  A
C1411      C1416   1.413       .  A
C1412      C1413   1.397       .  A
C1412      H1427   1.086       .  S
C1413      C1414   1.421       .  A
C1413      C1417   1.445       .  S
C1414      C1415   1.408       .  A
C1415      C1416   1.407       .  A
C1415      H1428   1.085       .  S
C1416      C1418   1.443       .  S
C1417      N1421   1.157       .  T
C1418      N1422   1.157       .  T
C1419      N1424   1.157       .  T
C1420      N1423   1.157       .  T
C1429      C1430   1.414       .  A
C1429      C1434   1.404       .  A
C1429      C1443   1.444       .  S
C1430      C1435   1.498       .  S
C1430      C1431   1.406       .  A
C1431      C1432   1.409       .  A
C1431      H1450   1.084       .  S
C1432      C1433   1.413       .  A
C1432      C1444   1.444       .  S
C1433      C1434   1.403       .  A
C1434      H1449   1.081       .  S
C1435      C1436   1.403       .  A
C1435      C3132   1.416       .  A
C1436      C1437   1.405       .  A
C1436      H1451   1.084       .  S
C1437      C3130   1.415       .  A
C1437      C1441   1.443       .  S
C1438      C1439   1.403       .  A
C1438      C3129   1.415   1_554  A
C1439      C1440   1.406       .  A
C1439      H1452   1.084       .  S
C1440      C3127   1.416   1_554  A
C1440      C1442   1.443       .  S
C1441      N1445   1.157       .  T
C1442      N1446   1.157       .  T
C1443      N1448   1.157       .  T
C1444      N1447   1.157       .  T
C1453      C1454   1.410       .  A
C1453      C1458   1.395       .  A
C1453      C1467   1.446       .  S
C1454      C1459   1.491       .  S
C1454      C1455   1.408       .  A
C1455      C1456   1.409       .  A
C1455      H1474   1.084       .  S
C1456      C1457   1.413       .  A
C1456      C1468   1.442       .  S
C1457      C1458   1.409       .  A
C1458      H1473   1.085       .  S
C1459      C1460   1.402       .  A
C1459      C1464   1.413       .  A
C1460      C1461   1.401       .  A
C1460      H1475   1.085       .  S
C1461      C1462   1.419       .  A
C1461      C1465   1.445       .  S
C1462      C1463   1.406       .  A
C1463      C1464   1.402       .  A
C1463      H1476   1.084       .  S
C1464      C1466   1.444       .  S
C1465      N1469   1.157       .  T
C1466      N1470   1.157       .  T
C1467      N1472   1.157       .  T
C1468      N1471   1.157       .  T
C1477      C3170   1.414       .  A
C1477      C3174   1.408       .  A
C1477      C1491   1.442       .  S
C1478      C3175   1.493       .  S
C1478      C1479   1.403       .  A
C1478      C3169   1.414       .  A
C1479      C1480   1.399   1_556  A
C1479      H1498   1.085       .  S
C1480      C1481   1.413       .  A
C1480      C1492   1.445       .  S
C1481      C1482   1.404       .  A
C1482      C3169   1.407   1_554  A
C1482      H3189   1.086       .  S
C1483      C3170   1.494       .  S
C1483      C1484   1.402       .  A
C1483      C1488   1.415       .  A
C1484      C1485   1.401       .  A
C1484      H1499   1.085       .  S
C1485      C1486   1.416       .  A
C1485      C1489   1.445       .  S
C1486      C1487   1.405       .  A
C1487      C1488   1.407       .  A
C1487      H1500   1.085       .  S
C1488      C3182   1.444       .  S
C1489      N1493   1.157       .  T
C1490      C3180   1.444   1_554  S
C1490      N1494   1.157       .  T
C1491      N1496   1.157       .  T
C1492      N1495   1.157       .  T
H1497      C3174   1.086       .  S
C1501      C1502   1.410       .  A
C1501      C1506   1.403       .  A
C1501      C3207   1.443   1_554  S
C1502      C3199   1.482       .  S
C1502      C1503   1.399       .  A
C1503      C1504   1.399       .  A
C1503      H1522   1.085       .  S
C1504      C1505   1.419       .  A
C1504      C1516   1.445       .  S
C1505      C1506   1.404       .  A
C1506      H1521   1.084       .  S
C1507      C3194   1.483       .  S
C1507      C1512   1.407       .  A
C1507      C3200   1.404       .  A
C1508      C3199   1.404       .  A
C1508      C3201   1.405   1_554  A
C1508      H1523   1.084       .  S
C1509      C1510   1.415       .  A
C1509      C3200   1.406       .  A
C1509      C1513   1.443       .  S
C1510      C1511   1.406       .  A
C1511      C1512   1.395       .  A
C1511      H1524   1.085       .  S
C1512      C1514   1.445       .  S
C1513      N3209   1.157       .  T
C1514      N1518   1.157       .  T
C1515      C3193   1.443       .  S
C1515      N1520   1.157       .  T
C1516      N1519   1.157       .  T
N1517      C3205   1.157       .  T
C1525      C1526   1.408       .  A
C1525      C1530   1.401       .  A
C1525      C1539   1.444       .  S
C1526      C1531   1.489       .  S
C1526      C1527   1.403       .  A
C1527      C1528   1.408       .  A
C1527      H1546   1.084       .  S
C1528      C1529   1.419       .  A
C1528      C1540   1.443       .  S
C1529      C1530   1.410       .  A
C1530      H1545   1.084       .  S
C1531      C1532   1.407       .  A
C1531      C1536   1.406       .  A
C1532      C1533   1.411       .  A
C1532      H1547   1.084       .  S
C1533      C1534   1.415       .  A
C1533      C1537   1.442       .  S
C1534      C1535   1.410       .  A
C1535      C1536   1.396       .  A
C1535      H1548   1.085       .  S
C1536      C1538   1.445       .  S
C1537      N1541   1.157       .  T
C1538      N1542   1.157       .  T
C1539      N1544   1.157       .  T
C1540      N1543   1.157       .  T
C1549      C1550   1.409       .  A
C1549      C1554   1.403       .  A
C1549      C1563   1.444       .  S
C1550      C1555   1.495   1_455  S
C1550      C1551   1.407       .  A
C1551      C1552   1.408       .  A
C1551      H1570   1.083   1_455  S
C1552      C1553   1.413       .  A
C1552      C1564   1.443       .  S
C1553      C1554   1.410       .  A
C1554      H1569   1.083       .  S
C1555      C1556   1.408       .  A
C1555      C1560   1.408       .  A
C1556      C1557   1.410       .  A
C1556      H1571   1.084       .  S
C1557      C1558   1.416       .  A
C1557      C1561   1.444       .  S
C1558      C1559   1.409       .  A
C1559      C1560   1.401       .  A
C1559      H1572   1.085       .  S
C1560      C1562   1.444       .  S
C1561      N3257   1.157       .  T
C1562      N1566   1.157       .  T
C1563      N1568   1.157       .  T
C1564      N1567   1.157       .  T
N1565      C3253   1.157       .  T
C1573      C1574   1.414       .  A
C1573      C1578   1.408       .  A
C1573      C1587   1.443       .  S
C1574      C1579   1.493       .  S
C1574      C1575   1.401       .  A
C1575      C1576   1.400       .  A
C1575      H1594   1.085       .  S
C1576      C1577   1.413       .  A
C1576      C1588   1.443       .  S
C1577      C1578   1.405       .  A
C1578      H1593   1.084       .  S
C1579      C1580   1.409       .  A
C1579      C1584   1.408       .  A
C1580      C1581   1.408       .  A
C1580      H1595   1.083       .  S
C1581      C1582   1.411       .  A
C1581      C1585   1.443       .  S
C1582      C1583   1.411       .  A
C1583      C1584   1.399       .  A
C1583      H1596   1.084       .  S
C1584      C1586   1.445       .  S
C1585      N1589   1.157       .  T
C1586      N1590   1.157       .  T
C1587      N1592   1.157       .  T
C1588      N1591   1.157   1_455  T
C1597      C1598   1.411       .  A
C1597      C1602   1.394       .  A
C1597      C1611   1.445       .  S
C1598      C1603   1.490       .  S
C1598      C1599   1.409       .  A
C1599      C1600   1.408       .  A
C1599      H1618   1.085       .  S
C1600      C1601   1.410       .  A
C1600      C1612   1.443       .  S
C1601      C1602   1.405       .  A
C1602      H1617   1.086       .  S
C1603      C1604   1.400       .  A
C1603      C1608   1.411       .  A
C1604      C1605   1.400       .  A
C1604      H1619   1.085       .  S
C1605      C1606   1.422       .  A
C1605      C1609   1.445       .  S
C1606      C1607   1.409       .  A
C1607      C1608   1.404       .  A
C1607      H1620   1.084       .  S
C1608      C1610   1.444       .  S
C1609      N1613   1.158       .  T
C1610      N1614   1.157       .  T
C1611      N1616   1.157       .  T
C1612      N1615   1.157       .  T
C1621      C1622   1.412       .  A
C1621      C1626   1.401       .  A
C1621      C1635   1.444       .  S
C1622      C1627   1.484       .  S
C1622      C1623   1.402       .  A
C1623      C1624   1.400       .  A
C1623      H1642   1.086       .  S
C1624      C1625   1.414       .  A
C1624      C1636   1.445       .  S
C1625      C1626   1.403       .  A
C1626      H1641   1.085       .  S
C1627      C1628   1.401       .  A
C1627      C1632   1.412       .  A
C1628      C1629   1.395       .  A
C1628      H1643   1.085       .  S
C1629      C1630   1.413       .  A
C1629      C1633   1.445       .  S
C1630      C1631   1.405       .  A
C1631      C1632   1.405       .  A
C1631      H1644   1.084       .  S
C1632      C1634   1.443       .  S
C1633      N3329   1.157       .  T
C1634      N1638   1.157       .  T
C1635      N1640   1.157       .  T
C1636      N1639   1.157       .  T
N1637      C3325   1.157       .  T
C1645      C1646   1.407       .  A
C1645      C1650   1.393       .  A
C1645      C1659   1.446       .  S
C1646      C1651   1.485       .  S
C1646      C1647   1.405       .  A
C1647      C1648   1.410       .  A
C1647      H1666   1.083       .  S
C1648      C1649   1.416       .  A
C1648      C1660   1.443       .  S
C1649      C1650   1.408       .  A
C1650      H1665   1.084       .  S
C1651      C1652   1.398       .  A
C1651      C1656   1.411       .  A
C1652      C1653   1.398       .  A
C1652      H1667   1.085       .  S
C1653      C1654   1.418       .  A
C1653      C1657   1.444   1_554  S
C1654      C1655   1.408       .  A
C1655      C1656   1.407       .  A
C1655      H1668   1.084       .  S
C1656      C1658   1.444       .  S
C1657      N1661   1.157       .  T
C1658      N1662   1.157       .  T
C1659      N1664   1.157       .  T
C1660      N1663   1.157       .  T
C1669      C1670   1.405       .  A
C1669      C1674   1.393       .  A
C1669      C1683   1.446       .  S
C1670      C1675   1.482       .  S
C1670      C1671   1.403       .  A
C1671      C1672   1.409       .  A
C1671      H1690   1.085       .  S
C1672      C1673   1.418       .  A
C1672      C1684   1.442       .  S
C1673      C1674   1.411       .  A
C1674      H1689   1.083       .  S
C1675      C1676   1.403       .  A
C1675      C1680   1.407       .  A
C1676      C1677   1.403       .  A
C1676      H1691   1.085       .  S
C1677      C1678   1.414       .  A
C1677      C1681   1.443       .  S
C1678      C1679   1.407       .  A
C1679      C1680   1.399       .  A
C1679      H1692   1.086       .  S
C1680      C1682   1.444       .  S
C1681      N1685   1.157       .  T
C1682      N1686   1.157       .  T
C1683      N1688   1.157       .  T
C1684      N1687   1.157       .  T
O1693     Cr1711   1.944       .  S
O1693      C1701   1.262       .  A
O1694     Cr1711   1.996       .  S
O1694      C1695   1.260       .  A
C1695      O1696   1.257       .  A
C1695      C3370   1.484       .  S
O1696     Cr1712   1.987       .  S
O1697     Cr1712   2.031       .  S
O1697      C1698   1.271       .  A
C1698      O1699   1.255       .  A
C1698      C3245   1.491       .  S
O1699     Cr1713   1.957       .  S
O1700     Cr1713   2.048       .  S
O1700      C1701   1.281       .  A
C1701      C3341   1.489       .  S
O1702     Cr1711   1.992       .  S
O1702      C1710   1.257       .  A
O1703     Cr1711   1.947       .  S
O1703      C1704   1.260       .  A
C1704      O1705   1.277       .  A
C1704      C3293   1.480       .  S
O1705     Cr1712   2.041       .  S
O1706     Cr1712   1.944       .  S
O1706      C1707   1.254       .  A
C1707      O1708   1.273       .  A
C1707      C3274   1.491       .  S
O1708     Cr1713   2.039       .  S
O1709     Cr1713   1.986       .  S
O1709      C1710   1.255       .  A
C1710      C3317   1.479       .  S
Cr1711     O1714   1.769       .  S
Cr1712     O1714   1.771       .  S
Cr1713     O1714   1.771       .  S
O1715     Cr1733   1.948   1_655  S
O1715      C1723   1.262       .  A
O1716     Cr1733   2.003   1_655  S
O1716      C1717   1.260       .  A
C1717      O1718   1.257       .  A
C1717      C3221   1.499       .  S
O1718     Cr1734   1.992       .  S
O1719     Cr1734   2.036       .  S
O1719      C1720   1.272       .  A
C1720      O1721   1.255       .  A
C1720      C3125   1.484       .  S
O1721     Cr1735   1.964   1_655  S
O1722     Cr1735   2.039   1_655  S
O1722      C1723   1.278       .  A
C1723      C3202   1.481       .  S
O1724     Cr1733   1.997       .  S
O1724      C1732   1.259       .  A
O1725     Cr1733   1.943       .  S
O1725      C1726   1.259       .  A
C1726      O1727   1.279       .  A
C1726      C3149   1.489       .  S
O1727     Cr1734   2.049   1_455  S
O1728     Cr1734   1.954   1_455  S
O1728      C1729   1.253       .  A
C1729      O1730   1.272       .  A
C1729      C3269   1.480       .  S
O1730     Cr1735   2.036       .  S
O1731     Cr1735   1.997       .  S
O1731      C1732   1.260       .  A
C1732      C3178   1.487       .  S
Cr1733     O1736   1.770       .  S
Cr1734     O1736   1.773   1_655  S
Cr1735     O1736   1.774       .  S
O1737     Cr1755   1.955       .  S
O1738     Cr1755   1.994       .  S
O1738      C1739   1.261       .  A
C1739      O1740   1.259       .  A
C1739      C3053   1.480       .  S
O1740     Cr1756   1.987       .  S
O1741     Cr1756   2.037       .  S
O1741      C1742   1.272       .  A
C1742      O1743   1.258       .  A
C1742      C3130   1.489       .  S
O1744     Cr1757   2.043   1_556  S
O1744      C1745   1.276       .  A
C1745      C3034   1.485       .  S
O1746     Cr1755   1.989       .  S
O1747     Cr1755   1.959       .  S
O1747      C1748   1.259       .  A
C1748      O1749   1.276       .  A
C1748      C3082   1.491       .  S
O1749     Cr1756   2.040       .  S
O1750     Cr1756   1.959       .  S
O1750      C1751   1.256       .  A
C1751      O1752   1.272       .  A
C1751      C3250   1.491       .  S
O1753     Cr1757   2.002       .  S
O1753      C1754   1.263   1_554  A
C1754      C3106   1.495       .  S
Cr1755     O1758   1.766       .  S
Cr1756     O1758   1.770       .  S
O1759     Cr1777   2.008       .  S
O1759      C1767   1.262       .  A
O1760     Cr1777   1.955       .  S
O1760      C1761   1.260       .  A
C1761      O1762   1.275       .  A
C1761      C3101   1.477       .  S
O1762     Cr1778   2.039       .  S
O1763     Cr1778   1.959       .  S
O1763      C1764   1.256       .  A
C1764      O1765   1.271       .  A
C1764      C3005   1.496       .  S
O1765     Cr1779   2.034       .  S
O1766     Cr1779   1.987       .  S
O1766      C1767   1.258       .  A
C1767      C3077   1.492       .  S
O1768     Cr1777   1.961       .  S
O1768      C1776   1.264       .  A
O1769     Cr1777   2.007       .  S
O1769      C1770   1.263       .  A
C1770      O1771   1.259       .  A
C1770      C2981   1.493       .  S
O1771     Cr1778   1.992       .  S
O1772     Cr1778   2.041       .  S
O1772      C1773   1.273       .  A
C1773      O1774   1.256       .  A
C1773      C2933   1.502       .  S
O1774     Cr1779   1.959       .  S
O1775     Cr1779   2.034       .  S
O1775      C1776   1.276       .  A
C1776      C2957   1.492       .  S
Cr1777     O1780   1.773       .  S
Cr1778     O1780   1.777       .  S
Cr1779     O1780   1.771       .  S
O1781     Cr1799   1.999       .  S
O1781      C1789   1.261       .  A
O1782     Cr1799   1.949       .  S
C1783      O1784   1.278       .  A
C1783      C2885   1.487       .  S
O1784     Cr1800   2.047       .  S
O1785      C1786   1.254       .  A
C1786      O1787   1.273       .  A
C1786      C2861   1.488       .  S
O1787     Cr1801   2.037       .  S
O1788     Cr1801   1.992       .  S
O1788      C1789   1.259       .  A
C1789      C2909   1.490       .  S
O1790     Cr1799   1.949       .  S
O1790      C1798   1.260       .  A
O1791     Cr1799   1.998       .  S
C1792      O1793   1.260       .  A
C1792      C3346   1.489       .  S
O1793     Cr1800   1.995       .  S
O1794      C1795   1.272       .  A
C1795      O1796   1.254       .  A
C1795      C3010   1.485       .  S
O1796     Cr1801   1.958       .  S
O1797     Cr1801   2.039       .  S
O1797      C1798   1.277       .  A
C1798      C3365   1.493       .  S
Cr1799     O1802   1.760       .  S
Cr1801     O1802   1.769       .  S
O1803     Cr1821   1.998   1_455  S
O1803      C1811   1.261       .  A
O1804     Cr1821   1.951   1_455  S
O1804      C1805   1.260       .  A
C1805      O1806   1.276   1_455  A
C1805      C2818   1.486       .  S
O1806     Cr1822   2.041       .  S
O1807     Cr1822   1.952   1_455  S
O1807      C1808   1.254       .  A
C1808      O1809   1.272       .  A
C1808      C2866   1.476       .  S
O1809     Cr1823   2.034       .  S
O1810     Cr1823   2.002       .  S
O1810      C1811   1.263       .  A
C1811      C2842   1.498       .  S
O1812     Cr1821   1.945       .  S
O1812      C1820   1.258       .  A
O1813     Cr1821   1.995       .  S
O1813      C1814   1.262       .  A
C1814      O1815   1.259       .  A
C1814      C2789   1.492       .  S
O1815     Cr1822   1.990       .  S
O1816     Cr1822   2.038       .  S
O1816      C1817   1.271       .  A
C1817      O1818   1.256       .  A
C1817      C2938   1.489       .  S
O1818     Cr1823   1.970   1_655  S
O1819     Cr1823   2.033   1_655  S
O1819      C1820   1.274       .  A
C1820      C2765   1.475       .  S
Cr1821     O1824   1.763       .  S
Cr1822     O1824   1.771       .  S
Cr1823     O1824   1.770   1_455  S
O1825     Cr1843   1.952       .  S
O1825      C1833   1.261       .  A
O1826     Cr1843   2.003       .  S
O1826      C1827   1.263       .  A
C1827      O1828   1.262       .  A
C1827      C2890   1.496       .  S
O1828     Cr1844   1.999       .  S
O1829     Cr1844   2.036       .  S
O1829      C1830   1.271       .  A
C1830      O1831   1.255       .  A
C1830      C2722   1.481       .  S
O1831     Cr1845   1.959       .  S
O1832     Cr1845   2.041       .  S
O1832      C1833   1.277       .  A
C1833      C2914   1.483       .  S
O1834     Cr1843   2.000       .  S
O1834      C1842   1.261       .  A
O1835     Cr1843   1.950       .  S
O1835      C1836   1.258       .  A
C1836      O1837   1.274       .  A
C1836      C2674   1.474       .  S
O1837     Cr1844   2.037       .  S
O1838     Cr1844   1.959       .  S
O1838      C1839   1.257       .  A
C1839      O1840   1.273       .  A
C1839      C2746   1.491       .  S
O1840     Cr1845   2.038       .  S
O1841     Cr1845   1.993       .  S
O1841      C1842   1.258       .  A
C1842      C2693   1.494       .  S
Cr1843     O1846   1.767       .  S
Cr1844     O1846   1.774       .  S
Cr1845     O1846   1.769       .  S
O1847     Cr1865   1.948       .  S
O1847      C1855   1.260       .  A
O1848     Cr1865   1.996       .  S
O1848      C1849   1.261       .  A
C1849      O1850   1.261       .  A
C1849      C2813   1.484       .  S
O1850     Cr1866   1.995       .  S
O1851     Cr1866   2.039       .  S
O1851      C1852   1.272       .  A
C1852      O1853   1.254       .  A
C1852      C2717   1.483       .  S
O1853     Cr1867   1.951   1_565  S
O1854     Cr1867   2.053   1_565  S
O1854      C1855   1.280       .  A
C1855      C2837   1.502       .  S
O1856     Cr1865   2.000   1_545  S
O1856      C1864   1.261       .  A
O1857     Cr1865   1.951   1_545  S
O1857      C1858   1.261       .  A
C1858      O1859   1.275       .  A
C1858      C2621   1.489       .  S
O1859     Cr1866   2.032   1_545  S
O1860     Cr1866   1.963   1_545  S
O1860      C1861   1.255       .  A
C1861      O1862   1.274       .  A
C1861      C2597   1.488       .  S
O1862     Cr1867   2.044       .  S
O1863     Cr1867   1.989       .  S
O1863      C1864   1.258       .  A
C1864      C2645   1.495       .  S
Cr1865     O1868   1.765       .  S
Cr1866     O1868   1.771       .  S
Cr1867     O1868   1.766   1_545  S
O1869     Cr1887   1.954       .  S
O1869      C1877   1.265       .  A
O1870     Cr1887   1.995       .  S
C1871      O1872   1.254   1_556  A
C1871      C2530   1.488       .  S
O1872     Cr1888   1.993   1_554  S
O1873      C1874   1.271       .  A
C1874      O1875   1.255       .  A
C1874      C2741   1.490       .  S
O1875     Cr1889   1.954       .  S
O1876     Cr1889   2.046       .  S
O1876      C1877   1.281       .  A
C1877      C2501   1.480       .  S
O1878     Cr1887   1.998       .  S
O1878      C1886   1.256       .  A
O1879      C1880   1.264   1_554  A
C1880      O1881   1.282       .  A
C1880      C2549   1.476       .  S
O1881     Cr1888   2.049       .  S
O1882      C1883   1.256       .  A
C1883      O1884   1.272       .  A
C1883      C2602   1.501       .  S
O1884     Cr1889   2.034       .  S
O1885     Cr1889   1.995       .  S
O1885      C1886   1.255       .  A
C1886      C2573   1.487       .  S
Cr1887     O1890   1.774       .  S
Cr1889     O1890   1.778       .  S
O1891     Cr1909   1.990       .  S
O1891      C1899   1.259       .  A
O1892     Cr1909   1.947       .  S
O1892      C1893   1.258       .  A
C1893      O1894   1.279       .  A
C1893      C3226   1.489       .  S
O1894     Cr1910   2.051   1_545  S
O1895     Cr1910   1.955   1_545  S
O1895      C1896   1.255       .  A
C1896      O1897   1.274       .  A
C1896      C2453   1.491       .  S
O1897     Cr1911   2.047       .  S
O1898     Cr1911   1.998       .  S
O1898      C1899   1.261       .  A
C1899      C3197   1.483       .  S
O1900     Cr1909   1.952   1_565  S
O1900      C1908   1.261       .  A
O1901     Cr1909   1.994   1_565  S
O1901      C1902   1.259       .  A
C1902      O1903   1.258       .  A
C1902      C2429   1.486       .  S
O1903     Cr1910   1.989       .  S
O1904     Cr1910   2.043       .  S
O1904      C1905   1.274       .  A
C1905      O1906   1.257       .  A
C1905      C2477   1.495       .  S
O1906     Cr1911   1.967   1_565  S
O1907     Cr1911   2.043   1_565  S
O1907      C1908   1.278       .  A
C1908      C2405   1.493       .  S
Cr1909     O1912   1.766       .  S
Cr1910     O1912   1.768   1_565  S
Cr1911     O1912   1.768       .  S
O1913     Cr1931   1.997       .  S
O1914     Cr1931   1.958       .  S
O1914      C1915   1.264       .  A
C1915      O1916   1.279       .  A
C1915      C2698   1.495       .  S
O1916     Cr1932   2.044       .  S
O1917     Cr1932   1.951       .  S
O1917      C1918   1.252       .  A
C1918      O1919   1.273       .  A
C1918      C2333   1.482       .  S
O1920     Cr1933   1.995       .  S
O1920      C1921   1.259       .  A
C1921      C2669   1.493       .  S
O1922      C1930   1.261       .  A
O1923     Cr1931   1.991       .  S
O1923      C1924   1.258       .  A
C1924      O1925   1.257       .  A
C1924      C2381   1.484       .  S
O1925     Cr1932   1.990       .  S
O1926     Cr1932   2.040       .  S
O1926      C1927   1.273       .  A
C1927      O1928   1.256   1_556  A
C1927      C2482   1.494       .  S
O1929     Cr1933   2.049       .  S
O1929      C1930   1.279       .  A
C1930      C2357   1.480       .  S
Cr1931     O1934   1.766       .  S
Cr1932     O1934   1.770       .  S
O1935     Cr1953   1.999       .  S
O1935      C1943   1.260       .  A
O1936     Cr1953   1.946       .  S
O1936      C1937   1.261       .  A
C1937      O1938   1.277       .  A
C1937      C3058   1.490       .  S
O1938     Cr1954   2.043       .  S
O1939     Cr1954   1.961       .  S
O1939      C1940   1.256       .  A
C1940      O1941   1.274       .  A
C1940      C2458   1.491       .  S
O1941     Cr1955   2.045       .  S
O1942     Cr1955   1.994       .  S
O1942      C1943   1.259       .  A
C1943      C3029   1.491       .  S
O1944     Cr1953   1.951       .  S
O1944      C1952   1.260       .  A
O1945     Cr1953   1.997       .  S
O1945      C1946   1.260       .  A
C1946      O1947   1.258       .  A
C1946      C2506   1.494       .  S
O1947     Cr1954   1.992       .  S
O1948     Cr1954   2.039       .  S
O1948      C1949   1.272       .  A
C1949      O1950   1.255       .  A
C1949      C2338   1.494       .  S
O1950     Cr1955   1.953       .  S
O1951     Cr1955   2.045       .  S
O1951      C1952   1.279       .  A
C1952      C2525   1.482       .  S
Cr1953     O1956   1.768       .  S
Cr1954     O1956   1.774       .  S
Cr1955     O1956   1.770       .  S
O1957     Cr1975   1.995       .  S
O1957      C1965   1.260       .  A
O1958     Cr1975   1.968       .  S
O1958      C1959   1.263       .  A
C1959      O1960   1.276       .  A
C1959      C2237   1.494       .  S
O1960     Cr1976   2.040       .  S
O1961     Cr1976   1.967       .  S
O1961      C1962   1.257       .  A
C1962      O1963   1.273       .  A
C1962      C2309   1.488       .  S
O1963     Cr1977   2.039       .  S
O1964     Cr1977   2.003       .  S
O1964      C1965   1.262       .  A
C1965      C2266   1.494       .  S
O1966     Cr1975   1.961       .  S
O1966      C1974   1.261       .  A
O1967     Cr1975   1.998       .  S
O1967      C1968   1.261       .  A
C1968      O1969   1.261       .  A
C1968      C2554   1.490       .  S
O1969     Cr1976   1.996       .  S
O1970     Cr1976   2.042       .  S
O1970      C1971   1.272       .  A
C1971      O1972   1.257       .  A
C1971      C2290   1.502       .  S
O1972     Cr1977   1.969       .  S
O1973     Cr1977   2.038       .  S
O1973      C1974   1.276       .  A
C1974      C2578   1.485       .  S
Cr1975     O1978   1.772       .  S
Cr1976     O1978   1.772       .  S
Cr1977     O1978   1.774       .  S
O1979     Cr1997   1.990       .  S
O1979      C1987   1.259       .  A
O1980     Cr1997   1.944       .  S
O1980      C1981   1.259       .  A
C1981      O1982   1.279       .  A
C1981      C2650   1.488       .  S
O1982     Cr1998   2.049       .  S
O1983     Cr1998   1.963       .  S
O1983      C1984   1.255       .  A
C1984      O1985   1.276       .  A
C1984      C2285   1.501       .  S
O1985     Cr1999   2.051       .  S
O1986     Cr1999   1.999       .  S
O1986      C1987   1.260       .  A
C1987      C2626   1.485       .  S
O1988     Cr1997   1.948       .  S
O1988      C1996   1.259       .  A
O1989     Cr1997   1.996       .  S
O1989      C1990   1.259       .  A
C1990      O1991   1.258       .  A
C1990      C3154   1.489       .  S
O1991     Cr1998   1.989       .  S
O1992     Cr1998   2.041       .  S
O1992      C1993   1.273       .  A
C1993      O1994   1.254       .  A
C1993      C2213   1.487       .  S
O1994     Cr1999   1.955       .  S
O1995     Cr1999   2.051       .  S
O1995      C1996   1.280       .  A
C1996      C3173   1.480       .  S
Cr1997     O2000   1.767       .  S
Cr1998     O2000   1.769       .  S
Cr1999     O2000   1.770       .  S
O2001     Cr2019   1.995       .  S
O2002     Cr2019   1.945       .  S
O2002      C2003   1.259       .  A
C2003      O2004   1.278       .  A
C2003      C2170   1.480       .  S
O2004     Cr2020   2.043       .  S
O2005     Cr2020   1.962       .  S
O2005      C2006   1.255       .  A
C2006      O2007   1.272       .  A
C2006      C2314   1.493       .  S
O2008     Cr2021   1.995       .  S
O2008      C2009   1.260       .  A
C2009      C2194   1.494       .  S
O2010      C2018   1.261       .  A
O2011     Cr2019   1.997       .  S
O2011      C2012   1.258       .  A
C2012      O2013   1.259       .  A
C2012      C3298   1.497       .  S
O2013     Cr2020   1.995       .  S
O2014     Cr2020   2.039       .  S
O2014      C2015   1.273       .  A
C2015      O2016   1.255   1_556  A
C2015      C2218   1.484       .  S
O2017     Cr2021   2.035       .  S
O2017      C2018   1.276       .  A
C2018      C3322   1.473       .  S
Cr2019     O2022   1.768       .  S
Cr2020     O2022   1.771       .  S
O2023     Cr2041   1.956       .  S
O2023      C2031   1.260       .  A
O2024     Cr2041   1.992       .  S
O2024      C2025   1.257       .  A
C2025      O2026   1.259       .  A
C2025      C2165   1.485       .  S
O2026     Cr2042   1.998       .  S
O2027     Cr2042   2.030       .  S
O2027      C2028   1.272       .  A
C2028      O2029   1.257       .  A
C2028      C2141   1.494       .  S
O2029     Cr2043   1.961       .  S
O2030     Cr2043   2.037       .  S
O2030      C2031   1.275       .  A
C2031      C2189   1.480       .  S
O2032     Cr2041   1.999       .  S
O2032      C2040   1.259       .  A
O2033     Cr2041   1.955       .  S
O2033      C2034   1.263       .  A
C2034      O2035   1.276       .  A
C2034      C2386   1.479       .  S
O2035     Cr2042   2.032       .  S
O2036     Cr2042   1.963       .  S
O2036      C2037   1.255       .  A
C2037      O2038   1.269       .  A
C2037      C2117   1.481       .  S
O2038     Cr2043   2.029       .  S
O2039     Cr2043   2.003       .  S
O2039      C2040   1.261       .  A
C2040      C2362   1.493       .  S
Cr2041     O2044   1.768       .  S
Cr2042     O2044   1.774       .  S
Cr2043     O2044   1.773       .  S
O2045     Cr2063   1.997       .  S
O2045      C2053   1.266       .  A
O2046     Cr2063   1.989       .  S
C2047      O2048   1.264   1_554  A
C2047      C2242   1.496       .  S
O2048     Cr2064   2.010   1_556  S
O2049      C2050   1.271       .  A
C2050      O2051   1.262       .  A
C2050      C2146   1.489       .  S
O2051     Cr2065   1.987       .  S
O2052     Cr2065   1.999       .  S
O2052      C2053   1.265       .  A
C2053      C2261   1.499       .  S
O2054     Cr2063   1.982       .  S
O2054      C2062   1.258       .  A
O2055      C2056   1.266       .  A
C2056      O2057   1.267       .  A
C2056      C2986   1.499       .  S
O2057     Cr2064   1.996   1_556  S
O2058      C2059   1.265       .  A
C2059      O2060   1.272       .  A
C2059      C2098   1.489       .  S
O2060     Cr2065   2.019       .  S
O2061     Cr2065   2.004       .  S
O2061      C2062   1.263       .  A
C2062      C2962   1.490       .  S
Cr2063     O2066   1.770       .  S
Cr2065     O2066   1.767       .  S
O2067     Cr2085   1.943       .  S
O2067      C2075   1.260       .  A
O2068     Cr2085   1.997       .  S
O2068      C2069   1.262       .  A
C2069      O2070   1.261       .  A
C2069      C2410   1.484       .  S
O2070     Cr2086   1.991       .  S
O2071     Cr2086   2.028       .  S
O2071      C2072   1.269       .  A
C2072      O2073   1.254       .  A
C2072      C2122   1.484       .  S
O2073     Cr2087   1.962       .  S
O2074     Cr2087   2.041       .  S
O2074      C2075   1.278       .  A
C2075      C2434   1.491       .  S
O2076     Cr2085   1.987       .  S
O2076      C2084   1.257       .  A
O2077     Cr2085   1.961       .  S
O2077      C2078   1.261       .  A
C2078      O2079   1.273       .  A
C2078      C2794   1.477       .  S
O2079     Cr2086   2.028       .  S
O2080     Cr2086   1.955       .  S
O2080      C2081   1.256       .  A
C2081      O2082   1.275       .  A
C2081      C2093   1.489       .  S
O2082     Cr2087   2.042       .  S
O2083     Cr2087   1.990       .  S
O2083      C2084   1.257       .  A
C2084      C2770   1.480       .  S
Cr2085     O2088   1.765       .  S
Cr2086     O2088   1.769       .  S
Cr2087     O2088   1.769       .  S
C2089      C2090   1.410       .  A
C2089      C2094   1.401       .  A
C2089      C2103   1.444       .  S
C2090      C2095   1.495       .  S
C2090      C2091   1.408       .  A
C2091      C2092   1.408       .  A
C2091      H2110   1.094       .  S
C2092      C2093   1.413       .  A
C2092      C2104   1.444       .  S
C2093      C2094   1.408       .  A
C2094      H2109   1.094       .  S
C2095      C2100   1.414       .  A
C2096      C2097   1.400       .  A
C2096      H2111   1.081       .  S
C2097      C2098   1.415       .  A
C2097      C2101   1.443       .  S
C2099      C2100   1.412       .  A
C2099      H2112   1.081       .  S
C2100      C2102   1.443       .  S
C2101      N2105   1.156       .  T
C2102      N2106   1.157       .  T
C2103      N2108   1.157   1_556  T
C2104      N2107   1.157       .  T
C2113      C2114   1.414       .  A
C2113      C2118   1.406       .  A
C2113      C2127   1.444       .  S
C2114      C2119   1.492       .  S
C2114      C2115   1.403       .  A
C2115      C2116   1.403       .  A
C2115      H2134   1.084       .  S
C2116      C2117   1.412       .  A
C2116      C2128   1.444       .  S
C2117      C2118   1.404       .  A
C2118      H2133   1.084       .  S
C2119      C2120   1.402       .  A
C2119      C2124   1.414       .  A
C2120      C2121   1.403       .  A
C2120      H2135   1.086       .  S
C2121      C2122   1.416       .  A
C2121      C2125   1.445       .  S
C2122      C2123   1.403       .  A
C2123      C2124   1.405       .  A
C2123      H2136   1.086       .  S
C2124      C2126   1.443       .  S
C2125      N2129   1.157       .  T
C2126      N2130   1.157       .  T
C2127      N2132   1.157       .  T
C2128      N2131   1.157       .  T
C2137      C2138   1.414       .  A
C2137      C2142   1.407       .  A
C2137      C2151   1.443       .  S
C2138      C2143   1.491       .  S
C2138      C2139   1.397       .  A
C2139      C2140   1.399       .  A
C2139      H2158   1.085       .  S
C2140      C2141   1.421       .  A
C2140      C2152   1.443       .  S
C2141      C2142   1.407       .  A
C2142      H2157   1.084       .  S
C2143      C2144   1.408       .  A
C2143      C2148   1.409       .  A
C2144      C2145   1.409       .  A
C2144      H2159   1.085       .  S
C2145      C2146   1.412       .  A
C2145      C2149   1.443       .  S
C2146      C2147   1.408       .  A
C2147      C2148   1.396       .  A
C2147      H2160   1.084       .  S
C2148      C2150   1.446       .  S
C2149      N2153   1.157       .  T
C2150      N2154   1.157       .  T
C2151      N2156   1.157       .  T
C2152      N2155   1.157       .  T
C2161      C2162   1.412       .  A
C2161      C2166   1.406       .  A
C2161      C2175   1.444       .  S
C2162      C2167   1.485       .  S
C2162      C2163   1.399       .  A
C2163      C2164   1.399       .  A
C2163      H2182   1.085       .  S
C2164      C2165   1.416       .  A
C2164      C2176   1.444       .  S
C2165      C2166   1.405       .  A
C2166      H2181   1.084       .  S
C2167      C2168   1.400       .  A
C2167      C2172   1.411       .  A
C2168      C2169   1.398       .  A
C2168      H2183   1.084       .  S
C2169      C2170   1.415       .  A
C2169      C2173   1.446       .  S
C2170      C2171   1.405       .  A
C2171      C2172   1.406       .  A
C2171      H2184   1.083       .  S
C2172      C2174   1.442       .  S
C2173      N2177   1.157       .  T
C2174      N2178   1.157       .  T
C2175      N2180   1.157       .  T
C2176      N2179   1.157       .  T
C2185      C2186   1.413       .  A
C2185      C2190   1.406       .  A
C2185      C2199   1.443       .  S
C2186      C2191   1.485       .  S
C2186      C2187   1.399       .  A
C2187      C2188   1.396       .  A
C2187      H2206   1.084       .  S
C2188      C2189   1.415       .  A
C2188      C2200   1.445       .  S
C2189      C2190   1.404       .  A
C2190      H2205   1.084       .  S
C2191      C2192   1.404       .  A
C2191      C2196   1.408       .  A
C2192      C2193   1.405       .  A
C2192      H2207   1.086       .  S
C2193      C2194   1.417       .  A
C2194      C2195   1.410       .  A
C2195      C2196   1.397       .  A
C2195      H2208   1.086       .  S
C2196      C2198   1.445       .  S
C2197      N2201   1.157       .  T
C2198      N2202   1.157       .  T
C2200      N2203   1.157       .  T
C2209      C2210   1.408       .  A
C2209      C2214   1.403       .  A
C2209      C2223   1.443       .  S
C2210      C2215   1.494       .  S
C2210      C2211   1.407       .  A
C2211      C2212   1.408       .  A
C2211      H2230   1.085       .  S
C2212      C2213   1.412       .  A
C2212      C2224   1.443       .  S
C2213      C2214   1.408       .  A
C2214      H2229   1.086       .  S
C2215      C2216   1.404       .  A
C2215      C2220   1.413       .  A
C2216      C2217   1.406       .  A
C2216      H2231   1.085       .  S
C2217      C2221   1.444       .  S
C2218      C2219   1.403       .  A
C2219      H2232   1.084       .  S
C2221      N2225   1.157       .  T
C2222      N2226   1.157   1_554  T
C2223      N2228   1.157       .  T
C2224      N2227   1.157       .  T
C2233      C2234   1.410       .  A
C2233      C2238   1.401       .  A
C2233      C2247   1.445       .  S
C2234      C2239   1.493       .  S
C2234      C2235   1.405       .  A
C2235      C2236   1.408       .  A
C2235      H2254   1.084       .  S
C2236      C2237   1.416       .  A
C2236      C2248   1.443       .  S
C2237      C2238   1.408       .  A
C2238      H2253   1.084       .  S
C2239      C2240   1.402       .  A
C2239      C2244   1.411       .  A
C2240      C2241   1.403       .  A
C2240      H2255   1.085       .  S
C2241      C2242   1.417   1_556  A
C2241      C2245   1.444       .  S
C2242      C2243   1.410       .  A
C2243      C2244   1.406   1_554  A
C2243      H2256   1.085       .  S
C2244      C2246   1.444   1_556  S
C2245      N2249   1.157       .  T
C2246      N2250   1.157       .  T
C2247      N2252   1.157       .  T
C2248      N2251   1.157       .  T
C2257      C2258   1.409       .  A
C2257      C2262   1.398       .  A
C2257      C2271   1.445       .  S
C2258      C2263   1.494       .  S
C2258      C2259   1.405       .  A
C2259      C2260   1.409       .  A
C2259      H2278   1.085       .  S
C2260      C2261   1.420       .  A
C2260      C2272   1.444       .  S
C2261      C2262   1.410       .  A
C2262      H2277   1.085       .  S
C2263      C2264   1.401       .  A
C2263      C2268   1.413       .  A
C2264      C2265   1.400       .  A
C2264      H2279   1.086       .  S
C2265      C2266   1.419       .  A
C2265      C2269   1.445       .  S
C2266      C2267   1.408       .  A
C2267      C2268   1.409       .  A
C2267      H2280   1.085       .  S
C2268      C2270   1.443       .  S
C2269      N2273   1.157       .  T
C2270      N2274   1.157       .  T
C2271      N2276   1.157       .  T
C2272      N2275   1.157       .  T
C2281      C2282   1.416       .  A
C2281      C2286   1.411       .  A
C2281      C2295   1.443       .  S
C2282      C2287   1.503       .  S
C2282      C2283   1.402       .  A
C2283      C2284   1.408       .  A
C2283      H2302   1.084       .  S
C2284      C2285   1.421       .  A
C2284      C2296   1.444       .  S
C2285      C2286   1.406       .  A
C2286      H2301   1.083       .  S
C2287      C2288   1.409       .  A
C2287      C2292   1.409       .  A
C2288      C2289   1.414       .  A
C2288      H2303   1.084       .  S
C2289      C2290   1.417       .  A
C2289      C2293   1.444       .  S
C2290      C2291   1.410       .  A
C2291      C2292   1.404       .  A
C2291      H2304   1.084       .  S
C2292      C2294   1.443       .  S
C2293      N2297   1.158       .  T
C2294      N2298   1.157       .  T
C2295      N2300   1.157       .  T
C2296      N2299   1.157       .  T
C2305      C2306   1.413       .  A
C2305      C2310   1.407       .  A
C2305      C2319   1.443       .  S
C2306      C2311   1.494       .  S
C2306      C2307   1.403       .  A
C2307      C2308   1.406       .  A
C2307      H2326   1.085       .  S
C2308      C2309   1.415       .  A
C2308      C2320   1.444       .  S
C2309      C2310   1.405       .  A
C2310      H2325   1.085       .  S
C2311      C2312   1.406       .  A
C2311      C2316   1.408       .  A
C2312      C2313   1.409       .  A
C2312      H2327   1.083       .  S
C2313      C2314   1.414       .  A
C2313      C2317   1.443       .  S
C2314      C2315   1.410       .  A
C2315      C2316   1.404       .  A
C2315      H2328   1.083       .  S
C2316      C2318   1.443       .  S
C2317      N2321   1.157       .  T
C2318      N2322   1.157       .  T
C2319      N2324   1.157       .  T
C2320      N2323   1.157       .  T
C2329      C2330   1.412       .  A
C2329      C2334   1.405       .  A
C2329      C2343   1.443   1_565  S
C2330      C2335   1.492   1_565  S
C2330      C2331   1.403       .  A
C2331      C2332   1.406       .  A
C2331      H2350   1.085       .  S
C2332      C2333   1.415       .  A
C2332      C2344   1.445       .  S
C2333      C2334   1.403       .  A
C2334      H2349   1.085       .  S
C2335      C2336   1.408       .  A
C2335      C2340   1.406       .  A
C2336      C2337   1.412       .  A
C2336      H2351   1.086   1_545  S
C2337      C2338   1.415       .  A
C2337      C2341   1.443       .  S
C2338      C2339   1.409       .  A
C2339      C2340   1.399       .  A
C2339      H2352   1.086       .  S
C2340      C2342   1.444       .  S
C2341      N2345   1.157       .  T
C2342      N2346   1.157       .  T
C2343      N2348   1.157       .  T
C2344      N2347   1.157       .  T
C2353      C2354   1.414       .  A
C2353      C2358   1.408       .  A
C2353      C2367   1.443       .  S
C2354      C2359   1.492       .  S
C2354      C2355   1.402       .  A
C2355      C2356   1.401       .  A
C2355      H2374   1.085       .  S
C2356      C2357   1.413       .  A
C2356      C2368   1.445       .  S
C2357      C2358   1.403       .  A
C2358      H2373   1.085       .  S
C2359      C2360   1.401       .  A
C2359      C2364   1.411       .  A
C2360      C2361   1.402       .  A
C2360      H2375   1.085       .  S
C2361      C2362   1.419       .  A
C2361      C2365   1.445       .  S
C2362      C2363   1.407       .  A
C2363      C2364   1.408       .  A
C2363      H2376   1.084       .  S
C2364      C2366   1.443       .  S
C2365      N2369   1.158       .  T
C2366      N2370   1.157       .  T
C2367      N2372   1.157       .  T
C2368      N2371   1.157       .  T
C2377      C2378   1.410       .  A
C2377      C2382   1.396       .  A
C2377      C2391   1.445       .  S
C2378      C2383   1.487       .  S
C2378      C2379   1.406       .  A
C2379      C2380   1.405       .  A
C2379      H2398   1.085       .  S
C2380      C2381   1.414       .  A
C2380      C2392   1.443       .  S
C2381      C2382   1.406       .  A
C2382      H2397   1.086       .  S
C2383      C2384   1.402       .  A
C2383      C2388   1.412       .  A
C2384      C2385   1.395       .  A
C2384      H2399   1.085       .  S
C2385      C2386   1.412       .  A
C2385      C2389   1.445       .  S
C2386      C2387   1.406       .  A
C2387      C2388   1.406       .  A
C2387      H2400   1.084       .  S
C2388      C2390   1.443       .  S
C2389      N2393   1.157       .  T
C2390      N2394   1.157       .  T
C2391      N2396   1.157       .  T
C2392      N2395   1.157       .  T
C2401      C2402   1.406       .  A
C2401      C2406   1.396       .  A
C2401      C2415   1.446       .  S
C2402      C2403   1.402       .  A
C2403      C2404   1.407       .  A
C2404      C2405   1.418       .  A
C2404      C2416   1.443       .  S
C2405      C2406   1.410       .  A
C2406      H2421   1.084       .  S
C2407      C2408   1.404       .  A
C2407      C2412   1.408       .  A
C2408      C2409   1.403       .  A
C2408      H2423   1.086       .  S
C2409      C2410   1.412       .  A
C2409      C2413   1.443       .  S
C2410      C2411   1.408       .  A
C2411      C2412   1.400       .  A
C2411      H2424   1.086       .  S
C2413      N2417   1.157       .  T
C2414      N2418   1.157       .  T
C2415      N2420   1.157       .  T
C2416      N2419   1.157       .  T
C2425      C2426   1.411       .  A
C2425      C2430   1.402       .  A
C2425      C2439   1.444       .  S
C2426      C2431   1.482       .  S
C2426      C2427   1.398       .  A
C2427      C2428   1.399       .  A
C2427      H2446   1.085       .  S
C2428      C2429   1.419       .  A
C2428      C2440   1.445       .  S
C2429      C2430   1.406       .  A
C2430      H2445   1.084       .  S
C2431      C2432   1.405       .  A
C2431      C2436   1.406       .  A
C2432      C2433   1.408       .  A
C2432      H2447   1.083       .  S
C2433      C2434   1.416       .  A
C2433      C2437   1.443       .  S
C2434      C2435   1.410       .  A
C2435      C2436   1.392       .  A
C2435      H2448   1.084       .  S
C2436      C2438   1.446       .  S
C2437      N2441   1.157       .  T
C2438      N2442   1.157       .  T
C2439      N2444   1.157       .  T
C2440      N2443   1.157       .  T
C2449      C2450   1.409       .  A
C2449      C2454   1.403       .  A
C2449      C2463   1.443       .  S
C2450      C2455   1.496       .  S
C2450      C2451   1.407       .  A
C2451      C2452   1.410       .  A
C2451      H2470   1.085       .  S
C2452      C2453   1.414       .  A
C2452      C2464   1.443       .  S
C2453      C2454   1.408       .  A
C2454      H2469   1.086       .  S
C2455      C2456   1.401       .  A
C2455      C2460   1.414       .  A
C2456      C2457   1.405       .  A
C2456      H2471   1.086       .  S
C2457      C2458   1.416       .  A
C2457      C2461   1.443       .  S
C2458      C2459   1.405       .  A
C2459      C2460   1.409       .  A
C2459      H2472   1.086       .  S
C2460      C2462   1.443       .  S
C2461      N2465   1.157       .  T
C2462      N2466   1.157       .  T
C2463      N2468   1.157       .  T
C2464      N2467   1.157       .  T
C2473      C2474   1.414       .  A
C2473      C2478   1.408       .  A
C2473      C2487   1.443       .  S
C2474      C2479   1.497       .  S
C2474      C2475   1.401       .  A
C2475      C2476   1.405       .  A
C2475      H2494   1.084       .  S
C2476      C2477   1.418       .  A
C2476      C2488   1.443       .  S
C2477      C2478   1.405       .  A
C2478      H2493   1.083       .  S
C2479      C2484   1.408       .  A
C2480      C2481   1.410       .  A
C2480      H2495   1.084       .  S
C2481      C2482   1.414       .  A
C2481      C2485   1.443       .  S
C2483      C2484   1.403       .  A
C2483      H2496   1.084       .  S
C2484      C2486   1.444       .  S
C2485      N2489   1.157       .  T
C2486      N2490   1.157       .  T
C2488      N2491   1.157       .  T
C2497      C2498   1.414       .  A
C2497      C2502   1.407       .  A
C2497      C2511   1.443       .  S
C2498      C2503   1.487       .  S
C2498      C2499   1.399       .  A
C2499      C2500   1.397       .  A
C2499      H2518   1.084       .  S
C2500      C2501   1.415       .  A
C2500      C2512   1.445       .  S
C2501      C2502   1.404       .  A
C2502      H2517   1.084       .  S
C2503      C2504   1.404       .  A
C2503      C2508   1.409       .  A
C2504      C2505   1.406       .  A
C2504      H2519   1.086       .  S
C2505      C2506   1.418       .  A
C2505      C2509   1.444       .  S
C2506      C2507   1.409       .  A
C2507      C2508   1.397       .  A
C2507      H2520   1.086       .  S
C2508      C2510   1.445       .  S
C2509      N2513   1.157       .  T
C2510      N2514   1.157       .  T
C2511      N2516   1.157       .  T
C2512      N2515   1.157       .  T
C2521      C2522   1.414       .  A
C2521      C2526   1.408       .  A
C2521      C2535   1.443       .  S
C2522      C2527   1.493       .  S
C2522      C2523   1.402       .  A
C2523      C2524   1.398       .  A
C2523      H2542   1.086       .  S
C2524      C2525   1.414       .  A
C2524      C2536   1.445       .  S
C2525      C2526   1.405       .  A
C2526      H2541   1.085       .  S
C2527      C2528   1.403       .  A
C2527      C2532   1.414       .  A
C2528      C2529   1.400       .  A
C2528      H2543   1.085       .  S
C2529      C2530   1.415       .  A
C2530      C2531   1.406       .  A
C2531      C2532   1.406       .  A
C2531      H2544   1.084       .  S
C2532      C2534   1.444       .  S
C2533      N2537   1.157       .  T
C2534      N2538   1.157       .  T
C2535      N2540   1.157       .  T
C2536      N2539   1.157       .  T
C2545      C2546   1.415       .  A
C2545      C2550   1.406       .  A
C2545      C2559   1.443       .  S
C2546      C2551   1.489       .  S
C2546      C2547   1.401       .  A
C2547      C2548   1.398       .  A
C2547      H2566   1.085       .  S
C2548      C2549   1.412       .  A
C2548      C2560   1.445       .  S
C2549      C2550   1.403       .  A
C2550      H2565   1.084       .  S
C2551      C2552   1.405       .  A
C2551      C2556   1.410       .  A
C2552      C2553   1.406       .  A
C2552      H2567   1.087       .  S
C2553      C2554   1.415       .  A
C2553      C2557   1.444       .  S
C2554      C2555   1.408       .  A
C2555      C2556   1.399       .  A
C2555      H2568   1.087       .  S
C2556      C2558   1.445       .  S
C2557      N2561   1.157       .  T
C2558      N2562   1.157       .  T
C2559      N2564   1.157       .  T
C2569      C2570   1.414       .  A
C2569      C2574   1.406       .  A
C2569      C2583   1.444       .  S
C2570      C2575   1.494       .  S
C2570      C2571   1.404       .  A
C2571      C2572   1.404       .  A
C2571      H2590   1.084       .  S
C2572      C2573   1.415       .  A
C2572      C2584   1.445       .  S
C2573      C2574   1.405       .  A
C2574      H2589   1.084       .  S
C2575      C2576   1.403       .  A
C2575      C2580   1.414       .  A
C2576      C2577   1.402       .  A
C2576      H2591   1.085       .  S
C2577      C2578   1.414       .  A
C2577      C2581   1.445       .  S
C2578      C2579   1.405       .  A
C2579      C2580   1.407       .  A
C2579      H2592   1.084       .  S
C2580      C2582   1.443       .  S
C2581      N2585   1.157       .  T
C2582      N2586   1.157       .  T
C2583      N2588   1.157       .  T
C2584      N2587   1.157       .  T
C2593      C2594   1.416       .  A
C2593      C2598   1.406       .  A
C2593      C2607   1.444       .  S
C2594      C2599   1.499       .  S
C2594      C2595   1.404       .  A
C2595      C2596   1.407       .  A
C2595      H2614   1.084       .  S
C2596      C2597   1.416       .  A
C2596      C2608   1.444       .  S
C2597      C2598   1.403       .  A
C2598      H2613   1.084       .  S
C2599      C2600   1.399       .  A
C2599      C2604   1.415   1_556  A
C2600      C2601   1.400       .  A
C2600      H2615   1.084       .  S
C2601      C2605   1.445       .  S
C2602      C2603   1.408       .  A
C2603      H2616   1.083       .  S
C2604      C2606   1.443       .  S
C2605      N2609   1.157       .  T
C2606      N2610   1.157       .  T
C2608      N2611   1.157       .  T
C2617      C2618   1.406   1_556  A
C2617      C2622   1.393       .  A
C2617      C2631   1.446       .  S
C2619      H2638   1.085       .  S
C2620      C2621   1.418   1_554  A
C2620      C2632   1.443       .  S
C2621      C2622   1.408       .  A
C2622      H2637   1.085       .  S
C2623      C2624   1.398       .  A
C2623      C2628   1.410       .  A
C2624      C2625   1.397       .  A
C2624      H2639   1.084       .  S
C2625      C2626   1.418       .  A
C2625      C2629   1.445       .  S
C2626      C2627   1.406       .  A
C2627      C2628   1.405       .  A
C2627      H2640   1.084       .  S
C2629      N2633   1.157       .  T
C2630      N2634   1.157   1_554  T
C2631      N2636   1.157       .  T
C2632      N2635   1.157       .  T
C2641      C2642   1.407       .  A
C2641      C2646   1.400       .  A
C2641      C2655   1.444       .  S
C2642      C2647   1.486       .  S
C2642      C2643   1.403       .  A
C2643      C2644   1.404       .  A
C2643      H2662   1.084       .  S
C2644      C2645   1.419       .  A
C2644      C2656   1.444       .  S
C2645      C2646   1.410       .  A
C2646      H2661   1.084       .  S
C2647      C2648   1.407       .  A
C2647      C2652   1.406       .  A
C2648      C2649   1.410       .  A
C2648      H2663   1.085       .  S
C2649      C2650   1.414       .  A
C2649      C2653   1.443       .  S
C2650      C2651   1.408       .  A
C2651      C2652   1.393       .  A
C2651      H2664   1.085       .  S
C2652      C2654   1.445       .  S
C2653      N2657   1.157       .  T
C2654      N2658   1.157       .  T
C2655      N2660   1.157       .  T
C2656      N2659   1.157       .  T
C2665      C2666   1.410       .  A
C2665      C2670   1.399       .  A
C2665      C2679   1.445       .  S
C2666      C2671   1.488       .  S
C2666      C2667   1.404       .  A
C2667      C2668   1.405       .  A
C2667      H2686   1.086       .  S
C2668      C2669   1.416       .  A
C2669      C2670   1.409       .  A
C2670      H2685   1.086       .  S
C2671      C2672   1.400       .  A
C2671      C2676   1.415       .  A
C2672      C2673   1.397       .  A
C2672      H2687   1.084       .  S
C2673      C2674   1.413       .  A
C2673      C2677   1.446       .  S
C2674      C2675   1.402       .  A
C2675      C2676   1.406       .  A
C2675      H2688   1.084       .  S
C2676      C2678   1.443       .  S
C2677      N2681   1.157       .  T
C2678      N2682   1.157       .  T
C2679      N2684   1.157       .  T
C2680      N2683   1.157   1_554  T
C2689      C2690   1.408       .  A
C2689      C2694   1.400       .  A
C2689      C2703   1.444       .  S
C2690      C2695   1.489       .  S
C2690      C2691   1.404       .  A
C2691      C2692   1.408       .  A
C2691      H2710   1.084       .  S
C2692      C2693   1.418       .  A
C2692      C2704   1.443       .  S
C2693      C2694   1.408       .  A
C2694      H2709   1.084       .  S
C2695      C2696   1.405       .  A
C2695      C2700   1.408       .  A
C2696      C2697   1.411       .  A
C2696      H2711   1.084       .  S
C2697      C2698   1.419       .  A
C2697      C2701   1.443       .  S
C2698      C2699   1.408       .  A
C2699      C2700   1.396       .  A
C2699      H2712   1.085       .  S
C2700      C2702   1.445       .  S
C2701      N2705   1.157       .  T
C2702      N2706   1.157       .  T
C2703      N2708   1.157       .  T
C2704      N2707   1.157       .  T
C2713      C2714   1.414       .  A
C2713      C2718   1.408       .  A
C2713      C2727   1.443       .  S
C2714      C2719   1.491       .  S
C2714      C2715   1.400       .  A
C2715      C2716   1.399       .  A
C2715      H2734   1.084       .  S
C2716      C2717   1.415       .  A
C2716      C2728   1.444       .  S
C2717      C2718   1.405       .  A
C2718      H2733   1.084       .  S
C2719      C2720   1.402       .  A
C2719      C2724   1.414       .  A
C2720      C2721   1.401       .  A
C2720      H2735   1.085       .  S
C2721      C2722   1.412       .  A
C2721      C2725   1.444       .  S
C2722      C2723   1.405       .  A
C2723      C2724   1.407       .  A
C2723      H2736   1.085       .  S
C2724      C2726   1.444       .  S
C2725      N2729   1.157       .  T
C2726      N2730   1.157       .  T
C2727      N2732   1.157       .  T
C2728      N2731   1.157       .  T
C2737      C2738   1.408       .  A
C2737      C2742   1.402       .  A
C2737      C2751   1.444       .  S
C2738      C2743   1.496   1_545  S
C2738      C2739   1.409       .  A
C2739      C2740   1.408       .  A
C2739      H2758   1.083   1_545  S
C2740      C2741   1.411       .  A
C2740      C2752   1.443       .  S
C2741      C2742   1.410       .  A
C2742      H2757   1.084       .  S
C2743      C2744   1.409       .  A
C2743      C2748   1.408       .  A
C2744      C2745   1.409       .  A
C2744      H2759   1.085   1_565  S
C2745      C2746   1.414       .  A
C2745      C2749   1.444       .  S
C2746      C2747   1.408       .  A
C2747      C2748   1.400       .  A
C2747      H2760   1.085       .  S
C2748      C2750   1.444       .  S
C2749      N2753   1.157       .  T
C2750      N2754   1.157       .  T
C2751      N2756   1.157       .  T
C2752      N2755   1.157       .  T
C2761      C2762   1.410       .  A
C2761      C2766   1.404       .  A
C2761      C2775   1.442       .  S
C2762      C2767   1.480       .  S
C2762      C2763   1.400       .  A
C2763      C2764   1.394       .  A
C2763      H2782   1.085       .  S
C2764      C2765   1.413       .  A
C2764      C2776   1.446       .  S
C2765      C2766   1.405       .  A
C2766      H2781   1.084       .  S
C2767      C2768   1.398       .  A
C2767      C2772   1.412       .  A
C2768      C2769   1.395       .  A
C2768      H2783   1.085       .  S
C2769      C2770   1.416       .  A
C2769      C2773   1.445       .  S
C2770      C2771   1.405       .  A
C2771      C2772   1.404       .  A
C2771      H2784   1.085       .  S
C2772      C2774   1.444       .  S
C2773      N2777   1.157       .  T
C2774      N2778   1.157       .  T
C2775      N2780   1.157       .  T
C2776      N2779   1.157       .  T
C2785      C2786   1.409       .  A
C2785      C2790   1.394       .  A
C2786      C2787   1.405       .  A
C2787      C2788   1.405       .  A
C2787      H2806   1.086       .  S
C2788      C2789   1.418       .  A
C2788      C2800   1.444       .  S
C2789      C2790   1.408       .  A
C2790      H2805   1.085       .  S
C2791      C2792   1.400   1_554  A
C2792      C2793   1.396       .  A
C2792      H2807   1.084       .  S
C2793      C2794   1.414       .  A
C2793      C2797   1.445       .  S
C2794      C2795   1.404   1_556  A
C2795      H2808   1.084       .  S
C2796      C2798   1.444       .  S
C2797      N2801   1.157       .  T
C2798      N2802   1.157       .  T
C2799      N2804   1.157       .  T
C2800      N2803   1.158       .  T
C2809      C2810   1.408       .  A
C2809      C2814   1.401       .  A
C2809      C2823   1.444       .  S
C2810      C2811   1.404       .  A
C2811      C2812   1.405       .  A
C2811      H2830   1.086       .  S
C2812      C2813   1.412       .  A
C2812      C2824   1.443       .  S
C2813      C2814   1.407       .  A
C2814      H2829   1.086       .  S
C2815      C2820   1.408       .  A
C2816      H2831   1.085       .  S
C2817      C2818   1.415       .  A
C2818      C2819   1.406       .  A
C2819      C2820   1.395       .  A
C2819      H2832   1.085       .  S
C2820      C2822   1.445       .  S
C2821      N2825   1.157       .  T
C2822      N2826   1.157       .  T
C2823      N2828   1.157       .  T
C2824      N2827   1.157       .  T
C2833      C2834   1.407       .  A
C2833      C2838   1.396       .  A
C2833      C2847   1.445       .  S
C2834      C2839   1.493       .  S
C2834      C2835   1.407       .  A
C2835      C2836   1.413       .  A
C2835      H2854   1.084       .  S
C2836      C2837   1.418       .  A
C2836      C2848   1.442       .  S
C2837      C2838   1.412       .  A
C2838      H2853   1.084       .  S
C2839      C2840   1.400       .  A
C2839      C2844   1.412       .  A
C2840      C2841   1.404       .  A
C2840      H2855   1.084       .  S
C2841      C2842   1.421       .  A
C2841      C2845   1.445       .  S
C2842      C2843   1.408       .  A
C2843      C2844   1.407       .  A
C2843      H2856   1.083       .  S
C2844      C2846   1.444       .  S
C2845      N2849   1.157       .  T
C2846      N2850   1.157       .  T
C2847      N2852   1.157       .  T
C2848      N2851   1.157       .  T
C2857      C2858   1.405       .  A
C2857      C2862   1.397       .  A
C2857      C2871   1.445       .  S
C2858      C2863   1.484       .  S
C2859      C2860   1.407       .  A
C2859      H2878   1.084       .  S
C2860      C2861   1.414       .  A
C2860      C2872   1.443       .  S
C2862      H2877   1.086       .  S
C2863      C2864   1.400       .  A
C2863      C2868   1.412       .  A
C2864      C2865   1.402       .  A
C2864      H2879   1.084       .  S
C2865      C2866   1.414       .  A
C2865      C2869   1.444       .  S
C2866      C2867   1.402       .  A
C2867      C2868   1.403       .  A
C2867      H2880   1.084       .  S
C2868      C2870   1.444       .  S
C2869      N2873   1.157       .  T
C2871      N2876   1.157       .  T
C2872      N2875   1.157       .  T
C2881      C2882   1.415       .  A
C2881      C2886   1.410       .  A
C2881      C2895   1.443       .  S
C2882      C2887   1.495       .  S
C2882      C2883   1.402       .  A
C2883      C2884   1.396       .  A
C2883      H2902   1.085       .  S
C2884      C2885   1.416       .  A
C2884      C2896   1.446       .  S
C2885      C2886   1.407       .  A
C2886      H2901   1.085       .  S
C2887      C2888   1.401       .  A
C2887      C2892   1.414       .  A
C2888      C2889   1.400       .  A
C2888      H2903   1.085       .  S
C2889      C2890   1.419       .  A
C2889      C2893   1.444       .  S
C2890      C2891   1.408       .  A
C2891      C2892   1.408       .  A
C2891      H2904   1.084       .  S
C2892      C2894   1.443       .  S
C2893      N2897   1.157       .  T
C2894      N2898   1.157       .  T
C2895      N2900   1.157       .  T
C2896      N2899   1.157       .  T
C2905      C2906   1.409       .  A
C2905      C2910   1.400       .  A
C2905      C2919   1.444       .  S
C2906      C2911   1.492       .  S
C2906      C2907   1.406       .  A
C2907      C2908   1.407       .  A
C2907      H2926   1.083       .  S
C2908      C2909   1.416       .  A
C2908      C2920   1.444       .  S
C2909      C2910   1.407       .  A
C2910      H2925   1.083       .  S
C2911      C2912   1.403       .  A
C2911      C2916   1.413       .  A
C2912      C2913   1.398       .  A
C2912      H2927   1.084       .  S
C2913      C2914   1.413       .  A
C2913      C2917   1.445       .  S
C2914      C2915   1.405       .  A
C2915      C2916   1.408       .  A
C2915      H2928   1.083       .  S
C2916      C2918   1.443       .  S
C2917      N2921   1.157       .  T
C2918      N2922   1.157       .  T
C2919      N2924   1.157       .  T
C2920      N2923   1.157       .  T
C2929      C2930   1.407       .  A
C2929      C2934   1.402       .  A
C2929      C2943   1.444       .  S
C2930      C2935   1.497       .  S
C2930      C2931   1.407       .  A
C2931      C2932   1.412       .  A
C2931      H2950   1.084       .  S
C2932      C2933   1.417       .  A
C2932      C2944   1.443       .  S
C2933      C2934   1.412       .  A
C2934      H2949   1.084       .  S
C2935      C2936   1.403       .  A
C2935      C2940   1.415       .  A
C2936      C2937   1.406       .  A
C2936      H2951   1.084       .  S
C2937      C2938   1.414       .  A
C2937      C2941   1.444       .  S
C2938      C2939   1.405       .  A
C2939      C2940   1.409       .  A
C2939      H2952   1.085       .  S
C2940      C2942   1.443       .  S
C2941      N2945   1.157       .  T
C2942      N2946   1.157       .  T
C2943      N2948   1.157       .  T
C2944      N2947   1.157       .  T
C2953      C2954   1.408       .  A
C2953      C2958   1.398       .  A
C2953      C2967   1.445       .  S
C2954      C2959   1.485       .  S
C2954      C2955   1.402       .  A
C2955      C2956   1.406       .  A
C2955      H2974   1.085       .  S
C2956      C2957   1.418       .  A
C2956      C2968   1.443       .  S
C2957      C2958   1.408       .  A
C2958      H2973   1.085       .  S
C2959      C2960   1.401       .  A
C2959      C2964   1.408       .  A
C2960      C2961   1.402       .  A
C2960      H2975   1.084       .  S
C2961      C2962   1.417       .  A
C2961      C2965   1.444       .  S
C2962      C2963   1.409       .  A
C2963      C2964   1.403       .  A
C2963      H2976   1.084       .  S
C2964      C2966   1.443       .  S
C2965      N2969   1.157       .  T
C2966      N2970   1.157       .  T
C2967      N2972   1.157       .  T
C2968      N2971   1.157       .  T
C2977      C2978   1.413       .  A
C2977      C2982   1.401       .  A
C2977      C2991   1.445       .  S
C2978      C2983   1.499       .  S
C2978      C2979   1.407       .  A
C2979      C2980   1.408       .  A
C2979      H2998   1.087       .  S
C2980      C2981   1.416       .  A
C2980      C2992   1.443       .  S
C2981      C2982   1.406       .  A
C2982      H2997   1.087       .  S
C2983      C2984   1.403       .  A
C2983      C2988   1.413       .  A
C2984      C2985   1.400       .  A
C2984      H2999   1.086       .  S
C2985      C2986   1.421       .  A
C2986      C2987   1.410       .  A
C2987      C2988   1.407       .  A
C2987      H3000   1.086       .  S
C2988      C2990   1.443       .  S
C2989      N2993   1.158       .  T
C2990      N2994   1.157       .  T
C2991      N2996   1.157       .  T
C2992      N2995   1.157       .  T
C3001      C3002   1.407       .  A
C3001      C3006   1.400       .  A
C3001      C3015   1.444       .  S
C3002      C3007   1.493   1_655  S
C3002      C3003   1.406       .  A
C3003      C3004   1.410       .  A
C3003      H3022   1.085   1_655  S
C3004      C3005   1.416       .  A
C3004      C3016   1.443       .  S
C3005      C3006   1.411       .  A
C3006      H3021   1.085       .  S
C3007      C3008   1.401       .  A
C3007      C3012   1.414       .  A
C3008      C3009   1.404       .  A
C3008      H3023   1.084       .  S
C3009      C3010   1.416       .  A
C3009      C3013   1.444       .  S
C3010      C3011   1.404       .  A
C3011      C3012   1.406       .  A
C3011      H3024   1.085       .  S
C3012      C3014   1.444   1_455  S
C3014      N3018   1.157       .  T
C3015      N3020   1.157       .  T
C3016      N3019   1.157       .  T
C3025      C3026   1.410       .  A
C3025      C3030   1.401       .  A
C3025      C3039   1.444       .  S
C3026      C3031   1.492       .  S
C3026      C3027   1.405       .  A
C3027      C3028   1.406       .  A
C3027      H3046   1.085       .  S
C3028      C3029   1.415       .  A
C3028      C3040   1.443       .  S
C3029      C3030   1.408       .  A
C3030      H3045   1.085       .  S
C3031      C3032   1.402       .  A
C3031      C3036   1.413       .  A
C3032      C3033   1.398       .  A
C3032      H3047   1.085       .  S
C3033      C3034   1.415       .  A
C3033      C3037   1.445       .  S
C3034      C3035   1.405       .  A
C3035      C3036   1.408       .  A
C3035      H3048   1.084       .  S
C3036      C3038   1.443       .  S
C3038      N3042   1.157       .  T
C3039      N3044   1.157       .  T
C3040      N3043   1.157       .  T
C3049      C3050   1.407       .  A
C3049      C3054   1.400       .  A
C3049      C3063   1.444       .  S
C3050      C3055   1.482       .  S
C3050      C3051   1.404       .  A
C3051      C3052   1.402       .  A
C3051      H3070   1.086       .  S
C3052      C3053   1.412       .  A
C3052      C3064   1.444       .  S
C3053      C3054   1.407       .  A
C3054      H3069   1.086       .  S
C3055      C3056   1.404       .  A
C3055      C3060   1.405       .  A
C3056      C3057   1.409       .  A
C3056      H3071   1.085       .  S
C3057      C3058   1.417       .  A
C3057      C3061   1.443       .  S
C3058      C3059   1.408       .  A
C3059      C3060   1.392       .  A
C3059      H3072   1.085       .  S
C3060      C3062   1.446       .  S
C3061      N3065   1.157       .  T
C3062      N3066   1.157       .  T
C3063      N3068   1.157       .  T
C3064      N3067   1.157       .  T
C3073      C3074   1.410       .  A
C3073      C3078   1.404       .  A
C3073      C3087   1.444       .  S
C3074      C3079   1.491       .  S
C3074      C3075   1.403       .  A
C3075      C3076   1.405       .  A
C3075      H3094   1.085       .  S
C3076      C3077   1.416       .  A
C3076      C3088   1.444       .  S
C3077      C3078   1.408       .  A
C3078      H3093   1.085       .  S
C3079      C3080   1.401       .  A
C3079      C3084   1.411       .  A
C3080      C3081   1.400       .  A
C3080      H3095   1.086       .  S
C3081      C3082   1.418       .  A
C3081      C3085   1.445       .  S
C3082      C3083   1.407       .  A
C3083      C3084   1.408       .  A
C3083      H3096   1.085       .  S
C3084      C3086   1.442       .  S
C3085      N3089   1.157       .  T
C3086      N3090   1.157       .  T
C3087      N3092   1.157       .  T
C3088      N3091   1.157       .  T
C3097      C3098   1.417       .  A
C3097      C3102   1.407       .  A
C3097      C3111   1.444       .  S
C3098      C3103   1.492       .  S
C3098      C3099   1.401       .  A
C3099      C3100   1.397       .  A
C3099      H3118   1.084       .  S
C3100      C3101   1.413       .  A
C3100      C3112   1.445       .  S
C3101      C3102   1.402       .  A
C3102      H3117   1.084       .  S
C3103      C3104   1.399       .  A
C3103      C3108   1.413       .  A
C3104      C3105   1.396       .  A
C3104      H3119   1.086       .  S
C3105      C3106   1.422       .  A
C3105      C3109   1.444       .  S
C3106      C3107   1.408       .  A
C3107      C3108   1.407       .  A
C3107      H3120   1.085       .  S
C3108      C3110   1.443       .  S
C3109      N3113   1.157       .  T
C3110      N3114   1.157       .  T
C3111      N3116   1.157   1_556  T
C3112      N3115   1.157       .  T
C3121      C3122   1.414       .  A
C3121      C3126   1.404       .  A
C3121      C3135   1.444       .  S
C3122      C3127   1.498       .  S
C3122      C3123   1.406       .  A
C3123      C3124   1.408       .  A
C3123      H3142   1.084       .  S
C3124      C3125   1.413       .  A
C3124      C3136   1.444       .  S
C3125      C3126   1.403       .  A
C3126      H3141   1.082       .  S
C3127      C3128   1.403       .  A
C3128      C3129   1.405       .  A
C3128      H3143   1.084       .  S
C3129      C3133   1.443       .  S
C3130      C3131   1.404       .  A
C3131      C3132   1.406       .  A
C3131      H3144   1.084       .  S
C3132      C3134   1.443       .  S
C3133      N3137   1.157       .  T
C3134      N3138   1.157       .  T
C3135      N3140   1.157       .  T
C3136      N3139   1.157       .  T
C3145      C3146   1.410       .  A
C3145      C3150   1.394       .  A
C3145      C3159   1.446       .  S
C3146      C3151   1.491       .  S
C3146      C3147   1.408       .  A
C3147      C3148   1.409       .  A
C3147      H3166   1.084       .  S
C3148      C3149   1.413       .  A
C3148      C3160   1.442       .  S
C3149      C3150   1.408       .  A
C3150      H3165   1.085       .  S
C3151      C3152   1.402       .  A
C3151      C3156   1.413       .  A
C3152      C3153   1.401       .  A
C3152      H3167   1.085       .  S
C3153      C3154   1.418       .  A
C3153      C3157   1.445       .  S
C3154      C3155   1.406       .  A
C3155      C3156   1.401       .  A
C3155      H3168   1.084       .  S
C3156      C3158   1.444       .  S
C3157      N3161   1.157       .  T
C3158      N3162   1.157       .  T
C3159      N3164   1.157       .  T
C3160      N3163   1.157       .  T
C3169      C3183   1.442       .  S
C3170      C3171   1.402       .  A
C3171      C3172   1.398       .  A
C3171      H3190   1.086       .  S
C3172      C3173   1.413       .  A
C3172      C3184   1.445       .  S
C3173      C3174   1.405       .  A
C3175      C3176   1.402       .  A
C3175      C3180   1.415       .  A
C3176      C3177   1.401       .  A
C3176      H3191   1.085       .  S
C3177      C3178   1.416       .  A
C3177      C3181   1.445       .  S
C3178      C3179   1.405       .  A
C3179      C3180   1.406       .  A
C3179      H3192   1.085       .  S
C3181      N3185   1.157       .  T
C3182      N3186   1.157       .  T
C3183      N3188   1.157       .  T
C3184      N3187   1.157       .  T
C3193      C3194   1.410       .  A
C3193      C3198   1.403       .  A
C3194      C3195   1.399       .  A
C3195      C3196   1.400       .  A
C3195      H3214   1.085       .  S
C3196      C3197   1.418       .  A
C3196      C3208   1.445       .  S
C3197      C3198   1.404       .  A
C3198      H3213   1.084       .  S
C3199      C3204   1.408   1_554  A
C3200      H3215   1.084       .  S
C3201      C3202   1.413       .  A
C3201      C3205   1.443   1_556  S
C3202      C3203   1.406       .  A
C3203      C3204   1.395       .  A
C3203      H3216   1.085       .  S
C3204      C3206   1.445       .  S
C3206      N3210   1.157       .  T
C3207      N3212   1.157       .  T
C3208      N3211   1.157       .  T
C3217      C3218   1.407       .  A
C3217      C3222   1.401       .  A
C3217      C3231   1.444       .  S
C3218      C3223   1.490       .  S
C3218      C3219   1.403       .  A
C3219      C3220   1.407       .  A
C3219      H3238   1.084       .  S
C3220      C3221   1.420       .  A
C3220      C3232   1.444       .  S
C3221      C3222   1.411       .  A
C3222      H3237   1.083       .  S
C3223      C3224   1.408       .  A
C3223      C3228   1.407       .  A
C3224      C3225   1.411       .  A
C3224      H3239   1.084       .  S
C3225      C3226   1.413       .  A
C3225      C3229   1.443       .  S
C3226      C3227   1.408       .  A
C3227      C3228   1.396       .  A
C3227      H3240   1.085       .  S
C3228      C3230   1.445       .  S
C3229      N3233   1.157   1_545  T
C3230      N3234   1.157       .  T
C3231      N3236   1.157       .  T
C3232      N3235   1.157       .  T
C3241      C3242   1.408       .  A
C3241      C3246   1.402       .  A
C3241      C3255   1.444       .  S
C3242      C3247   1.493   1_455  S
C3242      C3243   1.407       .  A
C3243      C3244   1.407       .  A
C3243      H3262   1.084   1_455  S
C3244      C3245   1.413       .  A
C3244      C3256   1.443       .  S
C3245      C3246   1.409       .  A
C3246      H3261   1.083       .  S
C3247      C3248   1.407       .  A
C3247      C3252   1.408       .  A
C3248      C3249   1.409       .  A
C3248      H3263   1.085       .  S
C3249      C3250   1.415       .  A
C3249      C3253   1.444       .  S
C3250      C3251   1.409       .  A
C3251      C3252   1.401       .  A
C3251      H3264   1.085       .  S
C3252      C3254   1.444       .  S
C3254      N3258   1.157       .  T
C3255      N3260   1.157       .  T
C3256      N3259   1.157       .  T
C3265      C3266   1.414       .  A
C3265      C3270   1.409       .  A
C3265      C3279   1.443       .  S
C3266      C3271   1.493       .  S
C3266      C3267   1.401       .  A
C3267      C3268   1.399       .  A
C3267      H3286   1.085       .  S
C3268      C3269   1.413       .  A
C3268      C3280   1.443       .  S
C3269      C3270   1.405       .  A
C3270      H3285   1.084       .  S
C3271      C3272   1.409       .  A
C3271      C3276   1.408       .  A
C3272      C3273   1.408       .  A
C3272      H3287   1.083       .  S
C3273      C3274   1.411       .  A
C3273      C3277   1.443       .  S
C3274      C3275   1.411       .  A
C3275      C3276   1.399       .  A
C3275      H3288   1.085       .  S
C3276      C3278   1.445       .  S
C3277      N3281   1.157       .  T
C3278      N3282   1.157       .  T
C3279      N3284   1.157       .  T
C3280      N3283   1.157   1_455  T
C3289      C3290   1.411       .  A
C3289      C3294   1.395       .  A
C3289      C3303   1.445       .  S
C3290      C3295   1.491       .  S
C3290      C3291   1.409       .  A
C3291      C3292   1.407       .  A
C3291      H3310   1.085       .  S
C3292      C3293   1.410       .  A
C3292      C3304   1.443       .  S
C3293      C3294   1.405       .  A
C3294      H3309   1.086       .  S
C3295      C3296   1.400       .  A
C3295      C3300   1.411       .  A
C3296      C3297   1.400       .  A
C3296      H3311   1.085       .  S
C3297      C3298   1.422       .  A
C3297      C3301   1.445       .  S
C3298      C3299   1.409       .  A
C3299      C3300   1.404       .  A
C3299      H3312   1.084       .  S
C3300      C3302   1.444       .  S
C3301      N3305   1.157       .  T
C3302      N3306   1.157       .  T
C3303      N3308   1.157       .  T
C3304      N3307   1.157       .  T
C3313      C3314   1.413       .  A
C3313      C3318   1.401       .  A
C3313      C3327   1.444       .  S
C3314      C3319   1.485       .  S
C3314      C3315   1.402       .  A
C3315      C3316   1.399       .  A
C3315      H3334   1.086       .  S
C3316      C3317   1.414       .  A
C3316      C3328   1.445       .  S
C3317      C3318   1.403       .  A
C3318      H3333   1.085       .  S
C3319      C3320   1.402       .  A
C3319      C3324   1.412       .  A
C3320      C3321   1.396       .  A
C3320      H3335   1.085       .  S
C3321      C3322   1.411       .  A
C3321      C3325   1.445       .  S
C3322      C3323   1.403       .  A
C3323      C3324   1.404       .  A
C3323      H3336   1.084       .  S
C3324      C3326   1.443       .  S
C3326      N3330   1.157       .  T
C3327      N3332   1.157       .  T
C3328      N3331   1.157       .  T
C3337      C3338   1.407       .  A
C3337      C3342   1.393       .  A
C3337      C3351   1.446       .  S
C3338      C3343   1.485       .  S
C3338      C3339   1.405       .  A
C3339      C3340   1.410       .  A
C3339      H3358   1.083       .  S
C3340      C3341   1.416       .  A
C3340      C3352   1.443       .  S
C3341      C3342   1.408       .  A
C3342      H3357   1.084       .  S
C3343      C3344   1.399       .  A
C3343      C3348   1.411       .  A
C3344      C3345   1.398       .  A
C3344      H3359   1.085       .  S
C3345      C3346   1.418       .  A
C3345      C3349   1.444       .  S
C3346      C3347   1.408       .  A
C3347      C3348   1.407       .  A
C3347      H3360   1.084       .  S
C3348      C3350   1.444       .  S
C3349      N3353   1.157       .  T
C3350      N3354   1.157       .  T
C3351      N3356   1.157       .  T
C3352      N3355   1.157       .  T
C3361      C3362   1.405       .  A
C3361      C3366   1.393       .  A
C3361      C3375   1.446       .  S
C3362      C3367   1.481       .  S
C3362      C3363   1.403       .  A
C3363      C3364   1.407       .  A
C3363      H3382   1.085       .  S
C3364      C3365   1.418       .  A
C3364      C3376   1.443       .  S
C3365      C3366   1.410       .  A
C3366      H3381   1.083       .  S
C3367      C3368   1.403       .  A
C3367      C3372   1.407       .  A
C3368      C3369   1.403       .  A
C3368      H3383   1.085       .  S
C3369      C3370   1.415       .  A
C3369      C3373   1.444       .  S
C3370      C3371   1.407       .  A
C3371      C3372   1.398       .  A
C3371      H3384   1.086       .  S
C3372      C3374   1.444       .  S
C3373      N3377   1.157       .  T
C3374      N3378   1.157       .  T
C3375      N3380   1.157       .  T
C3376      N3379   1.157       .  T
